LIG(A-501)
  -OEChem-01292223193D

 55 59  0     1  0  0  0  0  0999 V2000
    9.5300    1.4180   21.3870 O   0  0  0  0  0  0  0  0  0  0  0  0
    9.0860    0.3830   21.8480 C   0  0  0  0  0  0  0  0  0  0  0  0
    8.0130   -0.3040   21.3670 N   0  0  0  0  0  0  0  0  0  0  0  0
    7.1690    0.1240   20.2890 C   0  0  0  0  0  0  0  0  0  0  0  0
    5.9920    0.9040   20.4860 C   0  0  0  0  0  0  0  0  0  0  0  0
    5.4800    1.2630   21.7610 C   0  0  0  0  0  0  0  0  0  0  0  0
    4.3420    2.0110   21.8760 C   0  0  0  0  0  0  0  0  0  0  0  0
    3.6700    2.4590   20.7430 C   0  0  0  0  0  0  0  0  0  0  0  0
    4.1180    2.1380   19.4950 C   0  0  0  0  0  0  0  0  0  0  0  0
    5.2820    1.3450   19.3300 C   0  0  0  0  0  0  0  0  0  0  0  0
    5.7820    0.9620   18.0590 C   0  0  0  0  0  0  0  0  0  0  0  0
    6.8720    0.2270   17.8810 N   0  0  0  0  0  0  0  0  0  0  0  0
    7.5330   -0.1700   18.9770 C   0  0  0  0  0  0  0  0  0  0  0  0
    7.8230   -1.6000   22.0390 C   0  0  0  0  0  0  0  0  0  0  0  0
    9.1520   -1.8240   22.7590 C   0  0  0  0  0  0  0  0  0  0  0  0
    9.6470   -0.3870   23.0500 C   0  0  1  0  0  0  0  0  0  0  0  0
   11.1810   -0.2490   23.0990 C   0  0  0  0  0  0  0  0  0  0  0  0
   11.9950   -1.0230   22.2690 C   0  0  0  0  0  0  0  0  0  0  0  0
   13.3430   -0.7270   22.1780 C   0  0  0  0  0  0  0  0  0  0  0  0
   14.3160   -1.5690   21.0030 Cl  0  0  0  0  0  0  0  0  0  0  0  0
   13.9180    0.2700   22.9330 C   0  0  0  0  0  0  0  0  0  0  0  0
   13.1250    0.9940   23.8030 C   0  0  0  0  0  0  0  0  0  0  0  0
   11.7570    0.7510   23.8990 C   0  0  0  0  0  0  0  0  0  0  0  0
   10.9320    1.5660   24.8690 C   0  0  0  0  0  0  0  0  0  0  0  0
    9.0010    0.2430   24.3130 C   0  0  0  0  0  0  0  0  0  0  0  0
    9.5080    1.6020   24.5010 N   0  3  1  0  0  0  0  0  0  0  0  0
    8.7430    2.4720   25.3890 C   0  0  0  0  0  0  0  0  0  0  0  0
    7.7960    3.4280   24.6840 C   0  0  0  0  0  0  0  0  0  0  0  0
    6.7990    3.8540   25.2640 O   0  0  0  0  0  0  0  0  0  0  0  0
    8.0850    3.7580   23.4290 N   0  0  0  0  0  0  0  0  0  0  0  0
    7.1800    4.5360   22.6030 C   0  0  0  0  0  0  0  0  0  0  0  0
    5.9973    0.9403   22.6525 H   0  0  0  0  0  0  0  0  0  0  0  0
    3.9605    2.2568   22.8560 H   0  0  0  0  0  0  0  0  0  0  0  0
    2.7844    3.0673   20.8527 H   0  0  0  0  0  0  0  0  0  0  0  0
    3.5821    2.4905   18.6261 H   0  0  0  0  0  0  0  0  0  0  0  0
    5.2423    1.2888   17.1825 H   0  0  0  0  0  0  0  0  0  0  0  0
    8.4210   -0.7671   18.8310 H   0  0  0  0  0  0  0  0  0  0  0  0
    6.9900   -1.5532   22.7559 H   0  0  0  0  0  0  0  0  0  0  0  0
    7.6324   -2.3987   21.3070 H   0  0  0  0  0  0  0  0  0  0  0  0
    9.0042   -2.3863   23.6928 H   0  0  0  0  0  0  0  0  0  0  0  0
    9.8629   -2.3627   22.1152 H   0  0  0  0  0  0  0  0  0  0  0  0
   11.5766   -1.8433   21.7047 H   0  0  0  0  0  0  0  0  0  0  0  0
   14.9732    0.4833   22.8468 H   0  0  0  0  0  0  0  0  0  0  0  0
   13.5732    1.7603   24.4181 H   0  0  0  0  0  0  0  0  0  0  0  0
   11.0267    1.1239   25.8718 H   0  0  0  0  0  0  0  0  0  0  0  0
   11.3192    2.5955   24.8841 H   0  0  0  0  0  0  0  0  0  0  0  0
    7.9086    0.2744   24.1878 H   0  0  0  0  0  0  0  0  0  0  0  0
    9.2517   -0.3658   25.1942 H   0  0  0  0  0  0  0  0  0  0  0  0
    9.4722    2.0331   23.5994 H   0  0  0  0  0  0  0  0  0  0  0  0
    8.1491    1.8365   26.0624 H   0  0  0  0  0  0  0  0  0  0  0  0
    9.4540    3.0682   25.9798 H   0  0  0  0  0  0  0  0  0  0  0  0
    8.9567    3.4596   23.0404 H   0  0  0  0  0  0  0  0  0  0  0  0
    7.6269    4.6857   21.6091 H   0  0  0  0  0  0  0  0  0  0  0  0
    6.2257    3.9989   22.4987 H   0  0  0  0  0  0  0  0  0  0  0  0
    7.0011    5.5132   23.0754 H   0  0  0  0  0  0  0  0  0  0  0  0
  1  2  2  0  0  0  0
  2  3  1  0  0  0  0
  2 16  1  0  0  0  0
  3  4  1  0  0  0  0
  3 14  1  0  0  0  0
  4  5  2  0  0  0  0
  4 13  1  0  0  0  0
  5  6  1  0  0  0  0
  5 10  1  0  0  0  0
  6  7  2  0  0  0  0
  7  8  1  0  0  0  0
  8  9  2  0  0  0  0
  9 10  1  0  0  0  0
 10 11  2  0  0  0  0
 11 12  1  0  0  0  0
 12 13  2  0  0  0  0
 14 15  1  0  0  0  0
 15 16  1  0  0  0  0
 16 17  1  0  0  0  0
 16 25  1  0  0  0  0
 17 18  2  0  0  0  0
 17 23  1  0  0  0  0
 18 19  1  0  0  0  0
 19 20  1  0  0  0  0
 19 21  2  0  0  0  0
 21 22  1  0  0  0  0
 22 23  2  0  0  0  0
 23 24  1  0  0  0  0
 24 26  1  0  0  0  0
 25 26  1  0  0  0  0
 26 27  1  0  0  0  0
 27 28  1  0  0  0  0
 28 29  2  0  0  0  0
 28 30  1  0  0  0  0
 30 31  1  0  0  0  0
  6 32  1  0  0  0  0
  7 33  1  0  0  0  0
  8 34  1  0  0  0  0
  9 35  1  0  0  0  0
 11 36  1  0  0  0  0
 13 37  1  0  0  0  0
 14 38  1  0  0  0  0
 14 39  1  0  0  0  0
 15 40  1  0  0  0  0
 15 41  1  0  0  0  0
 18 42  1  0  0  0  0
 21 43  1  0  0  0  0
 22 44  1  0  0  0  0
 24 45  1  0  0  0  0
 24 46  1  0  0  0  0
 25 47  1  0  0  0  0
 25 48  1  0  0  0  0
 26 49  1  0  0  0  0
 27 50  1  0  0  0  0
 27 51  1  0  0  0  0
 30 52  1  0  0  0  0
 31 53  1  0  0  0  0
 31 54  1  0  0  0  0
 31 55  1  0  0  0  0
M  CHG  1  26   1
M  END
$$$$
