LIG(A-1101)
  -OEChem-04032019323D

 15 15  0     0  0  0  0  0  0999 V2000
   16.2070    2.3660  -14.6990 C   0  0  0  0  0  0  0  0  0  0  0  0
   16.7570    3.3040  -12.6730 C   0  0  0  0  0  0  0  0  0  0  0  0
   17.6160    2.4530  -11.7500 C   0  0  0  0  0  0  0  0  0  0  0  0
   18.7090    1.7750  -12.2530 C   0  0  0  0  0  0  0  0  0  0  0  0
   19.4850    0.9950  -11.4160 C   0  0  0  0  0  0  0  0  0  0  0  0
   19.1810    0.8860  -10.0750 C   0  0  0  0  0  0  0  0  0  0  0  0
   18.0910    1.5650   -9.5610 C   0  0  0  0  0  0  0  0  0  0  0  0
   16.0550    3.6700   -7.7390 C   0  0  0  0  0  0  0  0  0  0  0  0
   17.3140    2.3470  -10.4080 C   0  0  0  0  0  0  0  0  0  0  0  0
   17.7910    1.4270   -8.1430 N   0  0  0  0  0  0  0  0  0  0  0  0
   17.0200    3.2820  -14.0350 O   0  0  0  0  0  0  0  0  0  0  0  0
   15.8590    3.9680  -12.2770 O   0  0  0  0  0  0  0  0  0  0  0  0
   17.2430    2.3740   -5.7550 O   0  0  0  0  0  0  0  0  0  0  0  0
   18.6350    3.6490   -7.0130 O   0  0  0  0  0  0  0  0  0  0  0  0
   17.4660    2.7810   -7.1550 S   0  0  0  0  0  0  0  0  0  0  0  0
  1 11  1  0  0  0  0
  2  3  1  0  0  0  0
  2 11  1  0  0  0  0
  2 12  2  0  0  0  0
  3  4  2  0  0  0  0
  3  9  1  0  0  0  0
  4  5  1  0  0  0  0
  5  6  2  0  0  0  0
  6  7  1  0  0  0  0
  7  9  2  0  0  0  0
  7 10  1  0  0  0  0
  8 15  1  0  0  0  0
 10 15  1  0  0  0  0
 13 15  2  0  0  0  0
 14 15  2  0  0  0  0
M  END
$$$$
