LIG(A-1101)
  -OEChem-04032019333D

 15 16  0     0  0  0  0  0  0999 V2000
   10.8870  -25.7840    3.2130 C   0  0  0  0  0  0  0  0  0  0  0  0
   12.0240  -25.0000    3.2940 C   0  0  0  0  0  0  0  0  0  0  0  0
   12.3100  -24.0780    2.2910 C   0  0  0  0  0  0  0  0  0  0  0  0
   11.4540  -23.9360    1.2220 C   0  0  0  0  0  0  0  0  0  0  0  0
   10.3050  -24.7240    1.1490 C   0  0  0  0  0  0  0  0  0  0  0  0
    9.3260  -24.6010   -0.0620 C   0  0  0  0  0  0  0  0  0  0  0  0
    7.9280  -23.2130   -1.3450 C   0  0  0  0  0  0  0  0  0  0  0  0
    7.1150  -21.9110   -1.3720 C   0  0  0  0  0  0  0  0  0  0  0  0
    7.4680  -20.7180   -1.9990 C   0  0  0  0  0  0  0  0  0  0  0  0
    6.4430  -19.8110   -1.7710 C   0  0  0  0  0  0  0  0  0  0  0  0
    5.4560  -20.4840   -0.9940 C   0  0  0  0  0  0  0  0  0  0  0  0
   10.0250  -25.6480    2.1420 C   0  0  0  0  0  0  0  0  0  0  0  0
   10.5920  -26.6830    4.1750 F   0  0  0  0  0  0  0  0  0  0  0  0
    8.8570  -23.2170   -0.2810 N   0  3  0  0  0  0  0  0  0  0  0  0
    5.8860  -21.7230   -0.7860 O   0  0  0  0  0  0  0  0  0  0  0  0
  1  2  2  0  0  0  0
  1 12  1  0  0  0  0
  1 13  1  0  0  0  0
  2  3  1  0  0  0  0
  3  4  2  0  0  0  0
  4  5  1  0  0  0  0
  5  6  1  0  0  0  0
  5 12  2  0  0  0  0
  6 14  1  0  0  0  0
  7  8  1  0  0  0  0
  7 14  1  0  0  0  0
  8  9  2  0  0  0  0
  8 15  1  0  0  0  0
  9 10  1  0  0  0  0
 10 11  2  0  0  0  0
 11 15  1  0  0  0  0
M  CHG  1  14   1
M  END
$$$$
