LIG(A-1101)
  -OEChem-04302000413D

 20 21  0     0  0  0  0  0  0999 V2000
    6.8690   -2.3990   25.9350 N   0  0  0  0  0  0  0  0  0  0  0  0
    5.8960   -0.2310   26.5410 C   0  0  0  0  0  0  0  0  0  0  0  0
    5.2870   -0.2040   25.3300 O   0  0  0  0  0  0  0  0  0  0  0  0
    5.7620    0.7900   27.4840 C   0  0  0  0  0  0  0  0  0  0  0  0
    7.7250   -3.1920   21.8090 C   0  0  0  0  0  0  0  0  0  0  0  0
    7.0720   -2.5970   23.0240 C   0  0  0  0  0  0  0  0  0  0  0  0
    6.4070   -3.8980   19.8250 C   0  0  0  0  0  0  0  0  0  0  0  0
    7.1070   -2.8280   19.0300 C   0  0  0  0  0  0  0  0  0  0  0  0
    6.4120    0.6930   28.7030 C   0  0  0  0  0  0  0  0  0  0  0  0
    7.1950   -0.4040   28.9940 C   0  0  0  0  0  0  0  0  0  0  0  0
    7.3390   -1.4240   28.0660 C   0  0  0  0  0  0  0  0  0  0  0  0
    6.6790   -1.3470   26.8550 C   0  0  0  0  0  0  0  0  0  0  0  0
    5.9640   -3.0910   25.2040 C   0  0  0  0  0  0  0  0  0  0  0  0
    6.5530   -3.7020   23.9460 C   0  0  0  0  0  0  0  0  0  0  0  0
    5.5670   -4.5800   23.1720 C   0  0  0  0  0  0  0  0  0  0  0  0
    6.2360   -5.1470   21.9430 C   0  0  0  0  0  0  0  0  0  0  0  0
    6.7790   -4.0660   21.1100 N   0  0  0  0  0  0  0  0  0  0  0  0
    4.7860   -3.2250   25.5150 O   0  0  0  0  0  0  0  0  0  0  0  0
    5.5460   -4.5930   19.2980 O   0  0  0  0  0  0  0  0  0  0  0  0
    8.6930   -3.4130   18.3630 R#  0  0  0  0  0  0  0  0  0  0  0  0
  1 12  1  0  0  0  0
  1 13  1  0  0  0  0
  2  3  1  0  0  0  0
  2  4  2  0  0  0  0
  2 12  1  0  0  0  0
  4  9  1  0  0  0  0
  5  6  1  0  0  0  0
  5 17  1  0  0  0  0
  6 14  1  0  0  0  0
  7  8  1  0  0  0  0
  7 17  1  0  0  0  0
  7 19  2  0  0  0  0
  9 10  2  0  0  0  0
 10 11  1  0  0  0  0
 11 12  2  0  0  0  0
 13 14  1  0  0  0  0
 13 18  2  0  0  0  0
 14 15  1  0  0  0  0
 15 16  1  0  0  0  0
 16 17  1  0  0  0  0
  8 20  1  0  0  0  0
M  RGP  1  20   1
M  END
$$$$
