LIG(A-1101)
  -OEChem-04302000103D

 13 13  0     0  0  0  0  0  0999 V2000
    6.6940    2.6720   -6.6850 N   0  0  0  0  0  0  0  0  0  0  0  0
    4.4740   -1.9330   -6.5450 C   0  0  0  0  0  0  0  0  0  0  0  0
    6.3470    0.6260   -5.3890 O   0  0  0  0  0  0  0  0  0  0  0  0
    5.6080   -1.7210   -7.4400 C   0  0  0  0  0  0  0  0  0  0  0  0
    6.3340   -2.8390   -7.7740 C   0  0  0  0  0  0  0  0  0  0  0  0
    7.4430   -2.6940   -8.5610 C   0  0  0  0  0  0  0  0  0  0  0  0
    7.8570   -1.4460   -9.0070 C   0  0  0  0  0  0  0  0  0  0  0  0
    7.1170   -0.3330   -8.6960 C   0  0  0  0  0  0  0  0  0  0  0  0
    5.9870   -0.4510   -7.9200 C   0  0  0  0  0  0  0  0  0  0  0  0
    5.2380    0.8080   -7.6810 C   0  0  0  0  0  0  0  0  0  0  0  0
    8.1050   -3.7740   -8.9340 F   0  0  0  0  0  0  0  0  0  0  0  0
    4.5220    2.2620   -5.7740 O   0  0  0  0  0  0  0  0  0  0  0  0
    5.6530    1.5460   -6.2070 S   0  0  0  0  0  0  0  0  0  0  0  0
  1 13  1  0  0  0  0
  2  4  1  0  0  0  0
  3 13  2  0  0  0  0
  4  5  2  0  0  0  0
  4  9  1  0  0  0  0
  5  6  1  0  0  0  0
  6  7  2  0  0  0  0
  6 11  1  0  0  0  0
  7  8  1  0  0  0  0
  8  9  2  0  0  0  0
  9 10  1  0  0  0  0
 10 13  1  0  0  0  0
 12 13  2  0  0  0  0
M  END
$$$$
