LIG(A-701)
  -OEChem-04162023103D

 15 16  0     0  0  0  0  0  0999 V2000
   26.0480  -10.4060    4.0020 C   0  0  0  0  0  0  0  0  0  0  0  0
   26.4090  -10.3360    5.4920 C   0  0  0  0  0  0  0  0  0  0  0  0
   27.9260  -10.8440    7.0900 C   0  0  0  0  0  0  0  0  0  0  0  0
   27.7230  -11.8360    8.2230 C   0  0  0  0  0  0  0  0  0  0  0  0
   27.0260  -13.4420    6.7580 C   0  0  0  0  0  0  0  0  0  0  0  0
   27.1210  -12.5040    5.5600 C   0  0  0  0  0  0  0  0  0  0  0  0
   23.3920   -9.4930    4.6150 C   0  0  0  0  0  0  0  0  0  0  0  0
   23.6710   -8.1980    4.2200 C   0  0  0  0  0  0  0  0  0  0  0  0
   23.0050   -7.1460    4.8050 C   0  0  0  0  0  0  0  0  0  0  0  0
   22.0570   -7.3700    5.7910 C   0  0  0  0  0  0  0  0  0  0  0  0
   21.7840   -8.6650    6.1880 C   0  0  0  0  0  0  0  0  0  0  0  0
   22.4560   -9.7320    5.6020 C   0  0  0  0  0  0  0  0  0  0  0  0
   27.3220  -11.1550    5.8680 N   0  3  0  0  0  0  0  0  0  0  0  0
   27.9070  -13.1200    7.7790 O   0  0  0  0  0  0  0  0  0  0  0  0
   24.2930  -10.8550    3.8410 S   0  0  0  0  0  0  0  0  0  0  0  0
  1  2  1  0  0  0  0
  1 15  1  0  0  0  0
  2 13  1  0  0  0  0
  3  4  1  0  0  0  0
  3 13  1  0  0  0  0
  4 14  1  0  0  0  0
  5  6  1  0  0  0  0
  5 14  1  0  0  0  0
  6 13  1  0  0  0  0
  7  8  2  0  0  0  0
  7 12  1  0  0  0  0
  7 15  1  0  0  0  0
  8  9  1  0  0  0  0
  9 10  2  0  0  0  0
 10 11  1  0  0  0  0
 11 12  2  0  0  0  0
M  CHG  1  13   1
M  END
$$$$
