LIG(A-1101)
  -OEChem-04162023253D

 13 14  0     0  0  0  0  0  0999 V2000
    9.3330   -4.9600   26.4820 C   0  0  0  0  0  0  0  0  0  0  0  0
   10.5690   -4.8110   25.7560 C   0  0  0  0  0  0  0  0  0  0  0  0
   10.8100   -3.4010   25.2070 C   0  0  0  0  0  0  0  0  0  0  0  0
    9.8600   -1.6280   24.1990 C   0  0  0  0  0  0  0  0  0  0  0  0
   11.2350   -1.2740   23.6150 C   0  0  0  0  0  0  0  0  0  0  0  0
   12.1490   -0.1720   24.1440 C   0  0  0  0  0  0  0  0  0  0  0  0
   13.3560   -0.1220   23.3700 C   0  0  0  0  0  0  0  0  0  0  0  0
   11.8670   -1.9130   22.5000 C   0  0  0  0  0  0  0  0  0  0  0  0
    8.4890   -2.9630   25.2840 C   0  0  0  0  0  0  0  0  0  0  0  0
    8.2300   -4.4000   25.7450 C   0  0  0  0  0  0  0  0  0  0  0  0
    9.6990   -2.8170   24.4950 N   0  3  0  0  0  0  0  0  0  0  0  0
    9.4650   -4.3700   27.7520 O   0  0  0  0  0  0  0  0  0  0  0  0
   13.3110   -1.2460   22.2080 S   0  0  0  0  0  0  0  0  0  0  0  0
  1  2  1  0  0  0  0
  1 10  1  0  0  0  0
  1 12  1  0  0  0  0
  2  3  1  0  0  0  0
  3 11  1  0  0  0  0
  4  5  1  0  0  0  0
  4 11  1  0  0  0  0
  5  6  1  0  0  0  0
  5  8  2  0  0  0  0
  6  7  2  0  0  0  0
  7 13  1  0  0  0  0
  8 13  1  0  0  0  0
  9 10  1  0  0  0  0
  9 11  1  0  0  0  0
M  CHG  1  11   1
M  END
$$$$
