LIG(A-1101)
  -OEChem-04302000133D

 19 20  0     1  0  0  0  0  0999 V2000
    8.7980   -1.9840   23.0490 N   0  0  1  0  0  0  0  0  0  0  0  0
   12.7230   -2.0480   22.1320 C   0  0  0  0  0  0  0  0  0  0  0  0
    5.9400   -4.4160   19.5550 O   0  0  0  0  0  0  0  0  0  0  0  0
   12.1790   -0.9580   23.0200 C   0  0  0  0  0  0  0  0  0  0  0  0
    6.4650   -1.4660   21.2850 C   0  0  0  0  0  0  0  0  0  0  0  0
    7.1870   -3.7400   22.1060 C   0  0  0  0  0  0  0  0  0  0  0  0
    7.7650   -3.0040   23.3130 C   0  0  0  0  0  0  0  0  0  0  0  0
    6.5660   -3.3810   19.7670 C   0  0  0  0  0  0  0  0  0  0  0  0
    7.2560   -2.7040   18.5920 C   0  0  0  0  0  0  0  0  0  0  0  0
   12.9100    0.2110   23.1590 C   0  0  0  0  0  0  0  0  0  0  0  0
   12.4700    1.2440   23.9620 C   0  0  0  0  0  0  0  0  0  0  0  0
   11.2820    1.1230   24.6430 C   0  0  0  0  0  0  0  0  0  0  0  0
   10.5400   -0.0350   24.5240 C   0  0  0  0  0  0  0  0  0  0  0  0
   10.9760   -1.0970   23.7340 C   0  0  0  0  0  0  0  0  0  0  0  0
   10.1080   -2.3270   23.6150 C   0  0  0  0  0  0  0  0  0  0  0  0
    8.9100   -1.5010   21.6640 C   0  0  0  0  0  0  0  0  0  0  0  0
    7.7370   -0.6600   21.2420 C   0  0  0  0  0  0  0  0  0  0  0  0
    6.7070   -2.8880   21.0100 N   0  0  0  0  0  0  0  0  0  0  0  0
    8.9210   -3.3850   18.3200 R#  0  0  0  0  0  0  0  0  0  0  0  0
  1  7  1  0  0  0  0
  1 15  1  0  0  0  0
  1 16  1  0  0  0  0
  2  4  1  0  0  0  0
  3  8  2  0  0  0  0
  4 10  2  0  0  0  0
  4 14  1  0  0  0  0
  5 17  1  0  0  0  0
  5 18  1  0  0  0  0
  6  7  2  0  0  0  0
  6 18  1  0  0  0  0
  8  9  1  0  0  0  0
  8 18  1  0  0  0  0
 10 11  1  0  0  0  0
 11 12  2  0  0  0  0
 12 13  1  0  0  0  0
 13 14  2  0  0  0  0
 14 15  1  0  0  0  0
 16 17  1  0  0  0  0
  9 19  1  0  0  0  0
M  RGP  1  19   1
M  END
$$$$
