LIG(A-1101)
  -OEChem-04162023043D

 21 23  0     0  0  0  0  0  0999 V2000
    6.8830   -2.1700   20.8180 N   0  0  0  0  0  0  0  0  0  0  0  0
    8.3440   -3.0280   19.1560 C   0  0  0  0  0  0  0  0  0  0  0  0
    5.9820   -3.3830   19.1230 O   0  0  0  0  0  0  0  0  0  0  0  0
    6.9520   -2.8770   19.6780 C   0  0  0  0  0  0  0  0  0  0  0  0
   12.0090    2.0390   24.6280 C   0  0  0  0  0  0  0  0  0  0  0  0
   10.9990    2.3060   25.4940 C   0  0  0  0  0  0  0  0  0  0  0  0
   10.0070    1.3490   25.7480 C   0  0  0  0  0  0  0  0  0  0  0  0
   10.0300    0.1500   25.1030 C   0  0  0  0  0  0  0  0  0  0  0  0
   11.0560   -0.1680   24.1750 C   0  0  0  0  0  0  0  0  0  0  0  0
    7.9840   -3.2860   22.7300 C   0  0  0  0  0  0  0  0  0  0  0  0
    6.6770   -2.9150   22.0620 C   0  0  0  0  0  0  0  0  0  0  0  0
    7.8380   -1.0640   20.9480 C   0  0  0  0  0  0  0  0  0  0  0  0
    9.1040   -1.4560   21.6840 C   0  0  0  0  0  0  0  0  0  0  0  0
   10.0380   -2.4410   23.6830 C   0  0  0  0  0  0  0  0  0  0  0  0
   11.1220   -1.4100   23.4820 C   0  0  0  0  0  0  0  0  0  0  0  0
   12.1410   -1.6220   22.5880 C   0  0  0  0  0  0  0  0  0  0  0  0
   13.1440   -0.6630   22.3680 C   0  0  0  0  0  0  0  0  0  0  0  0
   13.1080    0.5210   23.0270 C   0  0  0  0  0  0  0  0  0  0  0  0
   12.0670    0.8060   23.9410 C   0  0  0  0  0  0  0  0  0  0  0  0
    8.8040   -2.1000   22.9650 N   0  3  0  0  0  0  0  0  0  0  0  0
    9.0390   -3.2560   17.5180 R#  0  0  0  0  0  0  0  0  0  0  0  0
  1  4  1  0  0  0  0
  1 11  1  0  0  0  0
  1 12  1  0  0  0  0
  2  4  1  0  0  0  0
  3  4  2  0  0  0  0
  5  6  2  0  0  0  0
  5 19  1  0  0  0  0
  6  7  1  0  0  0  0
  7  8  2  0  0  0  0
  8  9  1  0  0  0  0
  9 15  2  0  0  0  0
  9 19  1  0  0  0  0
 10 11  1  0  0  0  0
 10 20  1  0  0  0  0
 12 13  1  0  0  0  0
 13 20  1  0  0  0  0
 14 15  1  0  0  0  0
 14 20  1  0  0  0  0
 15 16  1  0  0  0  0
 16 17  2  0  0  0  0
 17 18  1  0  0  0  0
 18 19  2  0  0  0  0
  2 21  1  0  0  0  0
M  CHG  1  20   1
M  RGP  1  21   1
M  END
$$$$
