LIG(A-1101)
  -OEChem-04302000363D

 15 17  0     1  0  0  0  0  0999 V2000
    2.2660  -24.9490    0.8600 C   0  0  0  0  0  0  0  0  0  0  0  0
    2.0380  -23.5860    0.7280 C   0  0  0  0  0  0  0  0  0  0  0  0
    4.1440  -23.3370   -0.1750 C   0  0  0  0  0  0  0  0  0  0  0  0
    6.4330  -22.8710   -1.1390 C   0  0  0  0  0  0  0  0  0  0  0  0
    7.2850  -21.5600   -1.3400 C   0  0  0  0  0  0  0  0  0  0  0  0
    6.1880  -20.4690   -1.6130 C   0  0  1  0  0  0  0  0  0  0  0  0
    6.7090  -19.0540   -1.3430 C   0  0  0  0  0  0  0  0  0  0  0  0
    7.3550  -18.7200   -2.4970 C   0  0  0  0  0  0  0  0  0  0  0  0
    5.7760  -20.4110   -3.1660 C   0  0  0  0  0  0  0  0  0  0  0  0
    5.1580  -20.8150   -0.8110 C   0  0  0  0  0  0  0  0  0  0  0  0
    4.3760  -24.7140   -0.0460 C   0  0  0  0  0  0  0  0  0  0  0  0
    2.9930  -22.7980    0.2110 N   0  0  0  0  0  0  0  0  0  0  0  0
    5.2110  -22.4640   -0.7510 N   0  0  0  0  0  0  0  0  0  0  0  0
    3.4300  -25.4860    0.4770 N   0  0  0  0  0  0  0  0  0  0  0  0
    6.6850  -19.6230   -3.7070 O   0  0  0  0  0  0  0  0  0  0  0  0
  1  2  2  0  0  0  0
  1 14  1  0  0  0  0
  2 12  1  0  0  0  0
  3 11  1  0  0  0  0
  3 12  2  0  0  0  0
  3 13  1  0  0  0  0
  4  5  1  0  0  0  0
  4 13  1  0  0  0  0
  5  6  1  0  0  0  0
  6  7  1  0  0  0  0
  6  9  1  0  0  0  0
  6 10  1  0  0  0  0
  7  8  1  0  0  0  0
  8 15  1  0  0  0  0
  9 15  1  0  0  0  0
 10 13  1  0  0  0  0
 11 14  2  0  0  0  0
M  END
$$$$
