LIG(A-1101)
  -OEChem-04032019353D

 10 10  0     0  0  0  0  0  0999 V2000
   22.8900  -20.2580   23.3530 N   0  3  0  0  0  0  0  0  0  0  0  0
   23.8430  -18.0390   24.0540 C   0  0  0  0  0  0  0  0  0  0  0  0
   22.9660  -18.7840   23.0380 C   0  0  0  0  0  0  0  0  0  0  0  0
   21.6430  -20.5910   24.1160 C   0  0  0  0  0  0  0  0  0  0  0  0
   21.2250  -22.0050   23.9310 C   0  0  0  0  0  0  0  0  0  0  0  0
   21.2610  -23.0960   24.8060 C   0  0  0  0  0  0  0  0  0  0  0  0
   20.4370  -25.5260   24.5300 C   0  0  0  0  0  0  0  0  0  0  0  0
   20.6530  -24.1350   24.0920 N   0  0  0  0  0  0  0  0  0  0  0  0
   20.2840  -23.6690   22.8600 N   0  0  0  0  0  0  0  0  0  0  0  0
   20.6190  -22.4390   22.7570 N   0  0  0  0  0  0  0  0  0  0  0  0
  1  3  1  0  0  0  0
  1  4  1  0  0  0  0
  2  3  1  0  0  0  0
  4  5  1  0  0  0  0
  5  6  2  0  0  0  0
  5 10  1  0  0  0  0
  6  8  1  0  0  0  0
  7  8  1  0  0  0  0
  8  9  1  0  0  0  0
  9 10  2  0  0  0  0
M  CHG  1   1   1
M  END
$$$$
