LIG(A-701)
  -OEChem-04032019373D

 27 27  0     0  0  0  0  0  0999 V2000
    5.4710  -30.0890   10.6790 C   0  0  0  0  0  0  0  0  0  0  0  0
    4.9360  -29.8880    9.2600 C   0  0  0  0  0  0  0  0  0  0  0  0
    5.2510  -27.3620    9.3110 C   0  0  0  0  0  0  0  0  0  0  0  0
    4.3090  -26.1730    9.2770 C   0  0  0  0  0  0  0  0  0  0  0  0
    3.8660  -25.5990   10.4590 C   0  0  0  0  0  0  0  0  0  0  0  0
    3.0330  -24.4940   10.4100 C   0  0  0  0  0  0  0  0  0  0  0  0
    2.6600  -23.9650    9.1850 C   0  0  0  0  0  0  0  0  0  0  0  0
    3.1150  -24.5340    8.0180 C   0  0  0  0  0  0  0  0  0  0  0  0
    3.9400  -25.6320    8.0690 C   0  0  0  0  0  0  0  0  0  0  0  0
    4.8160  -28.5750    8.6310 N   0  0  0  0  0  0  0  0  0  0  0  0
    1.8390  -21.6820    7.6080 N   0  0  0  0  0  0  0  0  0  0  0  0
    4.5820  -30.8450    8.6610 O   0  0  0  0  0  0  0  0  0  0  0  0
    1.7570  -21.6090   10.1890 O   0  0  0  0  0  0  0  0  0  0  0  0
    0.1640  -22.9050    9.2050 O   0  0  0  0  0  0  0  0  0  0  0  0
    1.5720  -22.5220    9.0650 S   0  0  0  0  0  0  0  0  0  0  0  0
    5.4404  -31.1584   10.9349 H   0  0  0  0  0  0  0  0  0  0  0  0
    6.5088  -29.7285   10.7339 H   0  0  0  0  0  0  0  0  0  0  0  0
    4.8486  -29.5243   11.3888 H   0  0  0  0  0  0  0  0  0  0  0  0
    6.1991  -27.0465    8.8510 H   0  0  0  0  0  0  0  0  0  0  0  0
    5.4230  -27.6180   10.3669 H   0  0  0  0  0  0  0  0  0  0  0  0
    4.1684  -26.0107   11.4106 H   0  0  0  0  0  0  0  0  0  0  0  0
    2.6748  -24.0454   11.3248 H   0  0  0  0  0  0  0  0  0  0  0  0
    2.8246  -24.1189    7.0642 H   0  0  0  0  0  0  0  0  0  0  0  0
    4.3013  -26.0733    7.1519 H   0  0  0  0  0  0  0  0  0  0  0  0
    4.4263  -28.5071    7.7126 H   0  0  0  0  0  0  0  0  0  0  0  0
    2.5935  -21.0368    7.7281 H   0  0  0  0  0  0  0  0  0  0  0  0
    1.0108  -21.1823    7.3542 H   0  0  0  0  0  0  0  0  0  0  0  0
  1  2  1  0  0  0  0
  2 10  1  0  0  0  0
  2 12  2  0  0  0  0
  3  4  1  0  0  0  0
  3 10  1  0  0  0  0
  4  5  2  0  0  0  0
  4  9  1  0  0  0  0
  5  6  1  0  0  0  0
  6  7  2  0  0  0  0
  7  8  1  0  0  0  0
  7 15  1  0  0  0  0
  8  9  2  0  0  0  0
 11 15  1  0  0  0  0
 13 15  2  0  0  0  0
 14 15  2  0  0  0  0
  1 16  1  0  0  0  0
  1 17  1  0  0  0  0
  1 18  1  0  0  0  0
  3 19  1  0  0  0  0
  3 20  1  0  0  0  0
  5 21  1  0  0  0  0
  6 22  1  0  0  0  0
  8 23  1  0  0  0  0
  9 24  1  0  0  0  0
 10 25  1  0  0  0  0
 11 26  1  0  0  0  0
 11 27  1  0  0  0  0
M  END
$$$$
