LIG(A-1201)
  -OEChem-04302000173D

 16 15  0     1  0  0  0  0  0999 V2000
    1.3830   -8.6430   21.0970 C   0  0  0  0  0  0  0  0  0  0  0  0
    1.6250   -7.3870   21.8720 C   0  0  0  0  0  0  0  0  0  0  0  0
    3.1500   -6.1080   23.2980 C   0  0  1  0  0  0  0  0  0  0  0  0
    2.8460   -6.4030   24.7690 C   0  0  0  0  0  0  0  0  0  0  0  0
    3.1100   -7.8560   25.1040 C   0  0  0  0  0  0  0  0  0  0  0  0
    4.5720   -5.5530   23.1400 C   0  0  0  0  0  0  0  0  0  0  0  0
    6.6610   -5.4930   21.8310 C   0  0  0  0  0  0  0  0  0  0  0  0
    6.6600   -5.1360   20.3490 C   0  0  0  0  0  0  0  0  0  0  0  0
    5.6890   -5.6380   19.6220 C   0  0  0  0  0  0  0  0  0  0  0  0
    2.8250   -7.2550   22.4520 N   0  0  0  0  0  0  0  0  0  0  0  0
    2.2770   -8.4380   25.9530 N   0  0  0  0  0  0  0  0  0  0  0  0
    5.4250   -6.1380   22.2850 N   0  0  0  0  0  0  0  0  0  0  0  0
    0.7650   -6.5120   21.9520 O   0  0  0  0  0  0  0  0  0  0  0  0
    4.0600   -8.4470   24.6020 O   0  0  0  0  0  0  0  0  0  0  0  0
    4.8920   -4.5660   23.7990 O   0  0  0  0  0  0  0  0  0  0  0  0
    7.8670   -4.1740   19.4380 R#  0  0  0  0  0  0  0  0  0  0  0  0
  1  2  1  0  0  0  0
  2 10  1  0  0  0  0
  2 13  2  0  0  0  0
  3  4  1  0  0  0  0
  3  6  1  0  0  0  0
  3 10  1  0  0  0  0
  4  5  1  0  0  0  0
  5 11  1  0  0  0  0
  5 14  2  0  0  0  0
  6 12  1  0  0  0  0
  6 15  2  0  0  0  0
  7  8  1  0  0  0  0
  7 12  1  0  0  0  0
  8  9  2  0  0  0  0
  8 16  1  0  0  0  0
M  RGP  1  16   1
M  END
$$$$
