LIG(A-1101)
  -OEChem-04162022513D

 19 20  0     0  0  0  0  0  0999 V2000
    6.6280   -4.1540   21.3880 N   0  0  0  0  0  0  0  0  0  0  0  0
    6.8970   -2.9960   19.2290 C   0  0  0  0  0  0  0  0  0  0  0  0
    5.5030   -4.8740   19.5690 O   0  0  0  0  0  0  0  0  0  0  0  0
    6.2900   -4.0870   20.0780 C   0  0  0  0  0  0  0  0  0  0  0  0
    6.6600    0.6500   28.7340 C   0  0  0  0  0  0  0  0  0  0  0  0
    5.7160    1.5030   28.2100 C   0  0  0  0  0  0  0  0  0  0  0  0
    5.0660    1.1700   27.0430 C   0  0  0  0  0  0  0  0  0  0  0  0
    5.3550   -0.0190   26.3910 C   0  0  0  0  0  0  0  0  0  0  0  0
    5.9710   -5.0790   22.3240 C   0  0  0  0  0  0  0  0  0  0  0  0
    5.3610   -4.3210   23.4990 C   0  0  0  0  0  0  0  0  0  0  0  0
    6.4190   -3.4600   24.1770 C   0  0  0  0  0  0  0  0  0  0  0  0
    7.0370   -2.5200   23.1520 C   0  0  0  0  0  0  0  0  0  0  0  0
    7.6590   -3.3270   22.0240 C   0  0  0  0  0  0  0  0  0  0  0  0
    6.6830   -2.1940   26.2750 C   0  0  0  0  0  0  0  0  0  0  0  0
    6.3010   -0.8940   26.9150 C   0  0  0  0  0  0  0  0  0  0  0  0
    6.9560   -0.5410   28.0910 C   0  0  0  0  0  0  0  0  0  0  0  0
    5.8800   -2.6920   25.3050 N   0  0  0  0  0  0  0  0  0  0  0  0
    7.7300   -2.7570   26.5950 O   0  0  0  0  0  0  0  0  0  0  0  0
    8.5360   -3.3570   18.5280 R#  0  0  0  0  0  0  0  0  0  0  0  0
  1  4  1  0  0  0  0
  1  9  1  0  0  0  0
  1 13  1  0  0  0  0
  2  4  1  0  0  0  0
  3  4  2  0  0  0  0
  5  6  2  0  0  0  0
  5 16  1  0  0  0  0
  6  7  1  0  0  0  0
  7  8  2  0  0  0  0
  8 15  1  0  0  0  0
  9 10  1  0  0  0  0
 10 11  1  0  0  0  0
 11 12  1  0  0  0  0
 11 17  1  0  0  0  0
 12 13  1  0  0  0  0
 14 15  1  0  0  0  0
 14 17  1  0  0  0  0
 14 18  2  0  0  0  0
 15 16  2  0  0  0  0
  2 19  1  0  0  0  0
M  RGP  1  19   1
M  END
$$$$
