LIG(A-1101)
  -OEChem-04032019323D

 18 19  0     0  0  0  0  0  0999 V2000
    6.7560   -2.7010   20.9930 N   0  0  0  0  0  0  0  0  0  0  0  0
    7.0720   -2.6690   18.5570 C   0  0  0  0  0  0  0  0  0  0  0  0
    5.7630   -4.2720   19.6960 O   0  0  0  0  0  0  0  0  0  0  0  0
    6.4730   -3.2780   19.7990 C   0  0  0  0  0  0  0  0  0  0  0  0
   11.7730   -1.8300   22.8390 C   0  0  0  0  0  0  0  0  0  0  0  0
    8.7410   -1.7040   21.9520 C   0  0  0  0  0  0  0  0  0  0  0  0
    7.4550   -1.4380   21.2040 C   0  0  0  0  0  0  0  0  0  0  0  0
    6.4180   -3.3120   22.2790 C   0  0  0  0  0  0  0  0  0  0  0  0
    7.6780   -3.5560   23.0780 C   0  0  0  0  0  0  0  0  0  0  0  0
    9.6970   -2.6290   23.9900 C   0  0  0  0  0  0  0  0  0  0  0  0
   10.7990   -1.6170   23.7980 C   0  0  0  0  0  0  0  0  0  0  0  0
   10.8630   -0.4650   24.5650 C   0  0  0  0  0  0  0  0  0  0  0  0
   11.8810    0.4520   24.3710 C   0  0  0  0  0  0  0  0  0  0  0  0
   12.8540    0.2330   23.4170 C   0  0  0  0  0  0  0  0  0  0  0  0
   12.7820   -0.9120   22.6560 C   0  0  0  0  0  0  0  0  0  0  0  0
    8.4660   -2.3320   23.2480 N   0  3  0  0  0  0  0  0  0  0  0  0
   13.9860   -1.2300   21.4400 Cl  0  0  0  0  0  0  0  0  0  0  0  0
    8.7320   -3.3190   18.2510 R#  0  0  0  0  0  0  0  0  0  0  0  0
  1  4  1  0  0  0  0
  1  7  1  0  0  0  0
  1  8  1  0  0  0  0
  2  4  1  0  0  0  0
  3  4  2  0  0  0  0
  5 11  2  0  0  0  0
  5 15  1  0  0  0  0
  6  7  1  0  0  0  0
  6 16  1  0  0  0  0
  8  9  1  0  0  0  0
  9 16  1  0  0  0  0
 10 11  1  0  0  0  0
 10 16  1  0  0  0  0
 11 12  1  0  0  0  0
 12 13  2  0  0  0  0
 13 14  1  0  0  0  0
 14 15  2  0  0  0  0
 15 17  1  0  0  0  0
  2 18  1  0  0  0  0
M  CHG  1  16   1
M  RGP  1  18   1
M  END
$$$$
