LIG(A-1101)
  -OEChem-04302000383D

 18 19  0     0  0  0  0  0  0999 V2000
    8.5480    0.6090   24.9100 N   0  0  0  0  0  0  0  0  0  0  0  0
    7.8020    1.3710   24.0090 C   0  0  0  0  0  0  0  0  0  0  0  0
    8.2740    2.3700   23.4420 O   0  0  0  0  0  0  0  0  0  0  0  0
    9.9330    0.9400   25.2340 C   0  0  0  0  0  0  0  0  0  0  0  0
    4.1460    0.2620   24.7280 C   0  0  0  0  0  0  0  0  0  0  0  0
    4.3140    0.9600   22.4570 C   0  0  0  0  0  0  0  0  0  0  0  0
    5.7100    1.5670   22.7000 C   0  0  0  0  0  0  0  0  0  0  0  0
   10.8510    0.3180   24.2200 C   0  0  0  0  0  0  0  0  0  0  0  0
   12.0140    0.9790   23.8340 C   0  0  0  0  0  0  0  0  0  0  0  0
   12.8610    0.4010   22.8910 C   0  0  0  0  0  0  0  0  0  0  0  0
   12.5240   -0.8340   22.3280 C   0  0  0  0  0  0  0  0  0  0  0  0
   13.3600   -1.4060   21.3430 C   0  0  0  0  0  0  0  0  0  0  0  0
   11.3650   -1.5030   22.7140 C   0  0  0  0  0  0  0  0  0  0  0  0
   10.5300   -0.9260   23.6620 C   0  0  0  0  0  0  0  0  0  0  0  0
    5.5790    0.7590   25.0280 C   0  0  0  0  0  0  0  0  0  0  0  0
   14.0610   -1.8410   20.5400 N   0  0  0  0  0  0  0  0  0  0  0  0
    6.4320    0.8740   23.8000 N   0  0  0  0  0  0  0  0  0  0  0  0
    3.5710    0.9920   23.6590 O   0  0  0  0  0  0  0  0  0  0  0  0
  1  2  1  0  0  0  0
  1  4  1  0  0  0  0
  2  3  2  0  0  0  0
  2 17  1  0  0  0  0
  4  8  1  0  0  0  0
  5 15  1  0  0  0  0
  5 18  1  0  0  0  0
  6  7  1  0  0  0  0
  6 18  1  0  0  0  0
  7 17  1  0  0  0  0
  8  9  2  0  0  0  0
  8 14  1  0  0  0  0
  9 10  1  0  0  0  0
 10 11  2  0  0  0  0
 11 12  1  0  0  0  0
 11 13  1  0  0  0  0
 12 16  3  0  0  0  0
 13 14  2  0  0  0  0
 15 17  1  0  0  0  0
M  END
$$$$
