LIG(A-1101)
  -OEChem-04302000023D

 17 18  0     0  0  0  0  0  0999 V2000
    6.9010   -2.6410   20.9750 N   0  0  0  0  0  0  0  0  0  0  0  0
    7.3120   -2.5040   18.5340 C   0  0  0  0  0  0  0  0  0  0  0  0
    5.7870   -3.9990   19.5790 O   0  0  0  0  0  0  0  0  0  0  0  0
    6.5980   -3.0940   19.7380 C   0  0  0  0  0  0  0  0  0  0  0  0
    6.4330   -3.3050   22.1890 C   0  0  0  0  0  0  0  0  0  0  0  0
    7.7770   -1.5190   21.3060 C   0  0  0  0  0  0  0  0  0  0  0  0
    8.9550   -2.0120   22.1180 C   0  0  0  0  0  0  0  0  0  0  0  0
    9.6800   -3.1640   24.1240 C   0  0  0  0  0  0  0  0  0  0  0  0
    9.3510   -4.2460   25.1090 C   0  0  0  0  0  0  0  0  0  0  0  0
    9.6570   -5.6030   24.9980 C   0  0  0  0  0  0  0  0  0  0  0  0
    9.3350   -6.3400   26.1610 C   0  0  0  0  0  0  0  0  0  0  0  0
    8.5510   -5.5710   27.0400 C   0  0  0  0  0  0  0  0  0  0  0  0
    7.6200   -3.7970   22.9830 C   0  0  0  0  0  0  0  0  0  0  0  0
    8.5170   -2.6920   23.3430 N   0  3  0  0  0  0  0  0  0  0  0  0
    8.4850   -3.9240   26.5770 S   0  0  0  0  0  0  0  0  0  0  0  0
    7.6310   -6.1570   28.5620 Br  0  0  0  0  0  0  0  0  0  0  0  0
    8.8940   -3.3490   18.2510 R#  0  0  0  0  0  0  0  0  0  0  0  0
  1  4  1  0  0  0  0
  1  5  1  0  0  0  0
  1  6  1  0  0  0  0
  2  4  1  0  0  0  0
  3  4  2  0  0  0  0
  5 13  1  0  0  0  0
  6  7  1  0  0  0  0
  7 14  1  0  0  0  0
  8  9  1  0  0  0  0
  8 14  1  0  0  0  0
  9 10  2  0  0  0  0
  9 15  1  0  0  0  0
 10 11  1  0  0  0  0
 11 12  2  0  0  0  0
 12 15  1  0  0  0  0
 12 16  1  0  0  0  0
 13 14  1  0  0  0  0
  2 17  1  0  0  0  0
M  CHG  1  14   1
M  RGP  1  17   1
M  END
$$$$
