LIG(A-1101)
  -OEChem-04162023123D

 17 17  0     0  0  0  0  0  0999 V2000
    9.5540    5.1040   22.9770 N   0  0  0  0  0  0  0  0  0  0  0  0
   12.6390    1.0500   23.1170 C   0  0  0  0  0  0  0  0  0  0  0  0
   10.4020    5.1620   25.2790 O   0  0  0  0  0  0  0  0  0  0  0  0
   11.4010    1.1190   23.7620 C   0  0  0  0  0  0  0  0  0  0  0  0
   10.8610    2.3920   24.0270 C   0  0  0  0  0  0  0  0  0  0  0  0
   11.5330    3.5790   23.6590 C   0  0  0  0  0  0  0  0  0  0  0  0
   12.7770    3.4460   23.0240 C   0  0  0  0  0  0  0  0  0  0  0  0
   13.3360    2.1980   22.7540 C   0  0  0  0  0  0  0  0  0  0  0  0
   11.7620    6.1130   23.4790 O   0  0  0  0  0  0  0  0  0  0  0  0
   10.8740    5.1030   23.9510 S   0  0  0  0  0  0  0  0  0  0  0  0
   13.4370   -0.7020   22.6570 Br  0  0  0  0  0  0  0  0  0  0  0  0
    9.3604    6.0384   22.6781 H   0  0  0  0  0  0  0  0  0  0  0  0
    9.7282    4.5283   22.1781 H   0  0  0  0  0  0  0  0  0  0  0  0
   10.8736    0.2213   24.0490 H   0  0  0  0  0  0  0  0  0  0  0  0
    9.9058    2.4631   24.5259 H   0  0  0  0  0  0  0  0  0  0  0  0
   13.3169    4.3360   22.7362 H   0  0  0  0  0  0  0  0  0  0  0  0
   14.2981    2.1232   22.2691 H   0  0  0  0  0  0  0  0  0  0  0  0
  1 10  1  0  0  0  0
  2  4  2  0  0  0  0
  2  8  1  0  0  0  0
  2 11  1  0  0  0  0
  3 10  2  0  0  0  0
  4  5  1  0  0  0  0
  5  6  2  0  0  0  0
  6  7  1  0  0  0  0
  6 10  1  0  0  0  0
  7  8  2  0  0  0  0
  9 10  2  0  0  0  0
  1 12  1  0  0  0  0
  1 13  1  0  0  0  0
  4 14  1  0  0  0  0
  5 15  1  0  0  0  0
  7 16  1  0  0  0  0
  8 17  1  0  0  0  0
M  END
$$$$
