LIG(A-1101)
  -OEChem-04032019353D

 31 33  0     0  0  0  0  0  0999 V2000
   22.0070   18.3020    4.0530 C   0  0  0  0  0  0  0  0  0  0  0  0
   21.1390   19.3770    3.9200 C   0  0  0  0  0  0  0  0  0  0  0  0
   20.4720   19.8570    5.0360 C   0  0  0  0  0  0  0  0  0  0  0  0
   20.6520   19.2620    6.2800 C   0  0  0  0  0  0  0  0  0  0  0  0
   21.5170   18.1820    6.4130 C   0  0  0  0  0  0  0  0  0  0  0  0
   22.1880   17.7050    5.2920 C   0  0  0  0  0  0  0  0  0  0  0  0
   23.1500   16.5320    5.3920 C   0  0  0  0  0  0  0  0  0  0  0  0
   23.6340   14.3300    4.3200 C   0  0  0  0  0  0  0  0  0  0  0  0
   25.3710   13.0120    4.5380 C   0  0  0  0  0  0  0  0  0  0  0  0
   26.5880   12.3500    4.8900 C   0  0  0  0  0  0  0  0  0  0  0  0
   26.9450   11.1680    4.2450 C   0  0  0  0  0  0  0  0  0  0  0  0
   26.1200   10.6340    3.2500 C   0  0  0  0  0  0  0  0  0  0  0  0
   24.9380   11.2830    2.9070 C   0  0  0  0  0  0  0  0  0  0  0  0
   24.5650   12.4880    3.5720 C   0  0  0  0  0  0  0  0  0  0  0  0
   22.7270   15.4440    4.5300 N   0  0  0  0  0  0  0  0  0  0  0  0
   24.7730   14.1510    4.9870 N   0  0  0  0  0  0  0  0  0  0  0  0
   23.4990   13.3220    3.4580 N   0  0  0  0  0  0  0  0  0  0  0  0
   22.6960   17.8020    2.9430 O   0  0  0  0  0  0  0  0  0  0  0  0
   20.9846   19.8357    2.9545 H   0  0  0  0  0  0  0  0  0  0  0  0
   19.8058   20.7015    4.9386 H   0  0  0  0  0  0  0  0  0  0  0  0
   20.1205   19.6385    7.1415 H   0  0  0  0  0  0  0  0  0  0  0  0
   21.6665   17.7181    7.3768 H   0  0  0  0  0  0  0  0  0  0  0  0
   24.1545   16.8625    5.0891 H   0  0  0  0  0  0  0  0  0  0  0  0
   23.1791   16.1771    6.4328 H   0  0  0  0  0  0  0  0  0  0  0  0
   27.2289   12.7650    5.6538 H   0  0  0  0  0  0  0  0  0  0  0  0
   27.8609   10.6629    4.5139 H   0  0  0  0  0  0  0  0  0  0  0  0
   26.3999    9.7193    2.7486 H   0  0  0  0  0  0  0  0  0  0  0  0
   24.3021   10.8735    2.1360 H   0  0  0  0  0  0  0  0  0  0  0  0
   21.7575   15.3387    4.3088 H   0  0  0  0  0  0  0  0  0  0  0  0
   25.1306   14.7537    5.7003 H   0  0  0  0  0  0  0  0  0  0  0  0
   22.6786   16.8523    2.9603 H   0  0  0  0  0  0  0  0  0  0  0  0
  1  2  2  0  0  0  0
  1  6  1  0  0  0  0
  1 18  1  0  0  0  0
  2  3  1  0  0  0  0
  3  4  2  0  0  0  0
  4  5  1  0  0  0  0
  5  6  2  0  0  0  0
  6  7  1  0  0  0  0
  7 15  1  0  0  0  0
  8 15  1  0  0  0  0
  8 16  1  0  0  0  0
  8 17  2  0  0  0  0
  9 10  2  0  0  0  0
  9 14  1  0  0  0  0
  9 16  1  0  0  0  0
 10 11  1  0  0  0  0
 11 12  2  0  0  0  0
 12 13  1  0  0  0  0
 13 14  2  0  0  0  0
 14 17  1  0  0  0  0
  2 19  1  0  0  0  0
  3 20  1  0  0  0  0
  4 21  1  0  0  0  0
  5 22  1  0  0  0  0
  7 23  1  0  0  0  0
  7 24  1  0  0  0  0
 10 25  1  0  0  0  0
 11 26  1  0  0  0  0
 12 27  1  0  0  0  0
 13 28  1  0  0  0  0
 15 29  1  0  0  0  0
 16 30  1  0  0  0  0
 18 31  1  0  0  0  0
M  END
$$$$
