LIG(A-1101)
  -OEChem-04292023583D

 13 14  0     0  0  0  0  0  0999 V2000
    4.6520    8.1680   10.7410 N   0  0  0  0  0  0  0  0  0  0  0  0
    2.0470   10.0730    9.4640 C   0  0  0  0  0  0  0  0  0  0  0  0
    1.6470    9.5220   10.6820 O   0  0  0  0  0  0  0  0  0  0  0  0
    3.4080    9.5010    9.0190 C   0  0  0  0  0  0  0  0  0  0  0  0
    3.1890    8.1450    8.3320 C   0  0  0  0  0  0  0  0  0  0  0  0
    4.3580    9.4080   10.2000 C   0  0  0  0  0  0  0  0  0  0  0  0
    5.5300    8.1420   11.7840 C   0  0  0  0  0  0  0  0  0  0  0  0
    6.1340    9.2960   12.3190 C   0  0  0  0  0  0  0  0  0  0  0  0
    5.8100   10.5320   11.7690 C   0  0  0  0  0  0  0  0  0  0  0  0
    4.9190   10.6000   10.7110 C   0  0  0  0  0  0  0  0  0  0  0  0
    3.9910   10.3470    7.8900 C   0  0  0  0  0  0  0  0  0  0  0  0
    3.2260    9.9200    6.6400 C   0  0  0  0  0  0  0  0  0  0  0  0
    2.7170    8.5080    6.9150 C   0  0  0  0  0  0  0  0  0  0  0  0
  1  6  2  0  0  0  0
  1  7  1  0  0  0  0
  2  3  1  0  0  0  0
  2  4  1  0  0  0  0
  4  5  1  0  0  0  0
  4  6  1  0  0  0  0
  4 11  1  0  0  0  0
  5 13  1  0  0  0  0
  6 10  1  0  0  0  0
  7  8  2  0  0  0  0
  8  9  1  0  0  0  0
  9 10  2  0  0  0  0
 11 12  1  0  0  0  0
 12 13  1  0  0  0  0
M  END
$$$$
