LIG(A-1101)
  -OEChem-04292023583D

 11 11  0     0  0  0  0  0  0999 V2000
    9.9140   -0.6710   22.5440 C   0  0  0  0  0  0  0  0  0  0  0  0
    9.0200   -0.0530   21.4710 C   0  0  0  0  0  0  0  0  0  0  0  0
    6.9240   -0.1160   20.0670 C   0  0  0  0  0  0  0  0  0  0  0  0
    7.3010   -0.1830   18.7320 C   0  0  0  0  0  0  0  0  0  0  0  0
    5.4180    0.9350   18.0620 C   0  0  0  0  0  0  0  0  0  0  0  0
    4.9600    1.0580   19.3670 C   0  0  0  0  0  0  0  0  0  0  0  0
    5.7280    0.5160   20.3980 C   0  0  0  0  0  0  0  0  0  0  0  0
    5.2810    0.6220   21.8540 C   0  0  0  0  0  0  0  0  0  0  0  0
    7.7750   -0.6990   21.0920 N   0  0  0  0  0  0  0  0  0  0  0  0
    6.5510    0.3330   17.7770 N   0  0  0  0  0  0  0  0  0  0  0  0
    9.3460    0.9600   20.9550 O   0  0  0  0  0  0  0  0  0  0  0  0
  1  2  1  0  0  0  0
  2  9  1  0  0  0  0
  2 11  2  0  0  0  0
  3  4  2  0  0  0  0
  3  7  1  0  0  0  0
  3  9  1  0  0  0  0
  4 10  1  0  0  0  0
  5  6  1  0  0  0  0
  5 10  2  0  0  0  0
  6  7  2  0  0  0  0
  7  8  1  0  0  0  0
M  END
$$$$
