LIG(A-1101)
  -OEChem-04302000063D

 19 20  0     0  0  0  0  0  0999 V2000
    6.7430   -2.0750   24.1450 N   0  0  0  0  0  0  0  0  0  0  0  0
    1.3710   -2.7370   27.8260 C   0  0  0  0  0  0  0  0  0  0  0  0
    7.6030   -1.8050   26.2090 O   0  0  0  0  0  0  0  0  0  0  0  0
    2.7370   -2.5490   27.2270 C   0  0  0  0  0  0  0  0  0  0  0  0
    6.0510   -3.7230   22.4930 C   0  0  0  0  0  0  0  0  0  0  0  0
    5.6510   -2.4830   23.2590 C   0  0  0  0  0  0  0  0  0  0  0  0
    7.3330   -3.4790   20.3910 C   0  0  0  0  0  0  0  0  0  0  0  0
    8.6160   -2.9970   19.7660 C   0  0  0  0  0  0  0  0  0  0  0  0
    3.8120   -3.3240   27.6310 C   0  0  0  0  0  0  0  0  0  0  0  0
    5.0690   -3.1520   27.0780 C   0  0  0  0  0  0  0  0  0  0  0  0
    5.2780   -2.1880   26.1070 C   0  0  0  0  0  0  0  0  0  0  0  0
    4.2090   -1.4120   25.6940 C   0  0  0  0  0  0  0  0  0  0  0  0
    2.9550   -1.5950   26.2500 C   0  0  0  0  0  0  0  0  0  0  0  0
    6.6330   -1.9990   25.4850 C   0  0  0  0  0  0  0  0  0  0  0  0
    7.9890   -1.8220   23.4210 C   0  0  0  0  0  0  0  0  0  0  0  0
    8.3750   -3.0430   22.6150 C   0  0  0  0  0  0  0  0  0  0  0  0
    7.2690   -3.4400   21.7390 N   0  0  0  0  0  0  0  0  0  0  0  0
    6.3980   -3.8530   19.6950 O   0  0  0  0  0  0  0  0  0  0  0  0
    8.7080   -3.1760   17.9670 R#  0  0  0  0  0  0  0  0  0  0  0  0
  1  6  1  0  0  0  0
  1 14  1  0  0  0  0
  1 15  1  0  0  0  0
  2  4  1  0  0  0  0
  3 14  2  0  0  0  0
  4  9  2  0  0  0  0
  4 13  1  0  0  0  0
  5  6  1  0  0  0  0
  5 17  1  0  0  0  0
  7  8  1  0  0  0  0
  7 17  1  0  0  0  0
  7 18  2  0  0  0  0
  9 10  1  0  0  0  0
 10 11  2  0  0  0  0
 11 12  1  0  0  0  0
 11 14  1  0  0  0  0
 12 13  2  0  0  0  0
 15 16  1  0  0  0  0
 16 17  1  0  0  0  0
  8 19  1  0  0  0  0
M  RGP  1  19   1
M  END
$$$$
