LIG(A-1101)
  -OEChem-04302000443D

 19 20  0     1  0  0  0  0  0999 V2000
   10.7320   -4.4920   25.7770 C   0  0  0  0  0  0  0  0  0  0  0  0
    9.6260   -4.5180   24.7860 C   0  0  0  0  0  0  0  0  0  0  0  0
    8.9370   -5.6900   24.5520 C   0  0  0  0  0  0  0  0  0  0  0  0
    7.9130   -5.7480   23.6320 C   0  0  0  0  0  0  0  0  0  0  0  0
    7.5610   -4.6030   22.9230 C   0  0  0  0  0  0  0  0  0  0  0  0
    6.7140   -4.3530   20.6700 C   0  0  0  0  0  0  0  0  0  0  0  0
    8.0050   -3.6310   20.3570 C   0  0  0  0  0  0  0  0  0  0  0  0
    5.1700   -5.0530   22.4600 C   0  0  2  0  0  0  0  0  0  0  0  0
    4.9760   -4.5580   23.8880 C   0  0  0  0  0  0  0  0  0  0  0  0
    4.3500   -5.4030   24.6980 C   0  0  0  0  0  0  0  0  0  0  0  0
    5.0010   -6.5780   22.4800 C   0  0  0  0  0  0  0  0  0  0  0  0
    8.2400   -3.4080   23.1550 C   0  0  0  0  0  0  0  0  0  0  0  0
    9.2720   -3.3840   24.0720 C   0  0  0  0  0  0  0  0  0  0  0  0
    6.4880   -4.6590   21.9790 N   0  0  0  0  0  0  0  0  0  0  0  0
    5.9080   -4.6340   19.7950 O   0  0  0  0  0  0  0  0  0  0  0  0
    2.6000   -6.9740   23.5270 O   0  0  0  0  0  0  0  0  0  0  0  0
    4.5160   -8.0110   24.6710 O   0  0  0  0  0  0  0  0  0  0  0  0
    3.9870   -6.9150   23.9050 S   0  0  0  0  0  0  0  0  0  0  0  0
    8.2770   -3.3290   18.5900 R#  0  0  0  0  0  0  0  0  0  0  0  0
  1  2  1  0  0  0  0
  2  3  2  0  0  0  0
  2 13  1  0  0  0  0
  3  4  1  0  0  0  0
  4  5  2  0  0  0  0
  5 12  1  0  0  0  0
  5 14  1  0  0  0  0
  6  7  1  0  0  0  0
  6 14  1  0  0  0  0
  6 15  2  0  0  0  0
  8  9  1  0  0  0  0
  8 11  1  0  0  0  0
  8 14  1  0  0  0  0
  9 10  1  0  0  0  0
 10 18  1  0  0  0  0
 11 18  1  0  0  0  0
 12 13  2  0  0  0  0
 16 18  2  0  0  0  0
 17 18  2  0  0  0  0
  7 19  1  0  0  0  0
M  RGP  1  19   1
M  END
$$$$
