LIG(A-1101)
  -OEChem-04302000193D

 20 21  0     0  0  0  0  0  0999 V2000
    6.7180   -5.0630   21.8150 N   0  0  0  0  0  0  0  0  0  0  0  0
    7.9510   -3.5980   20.3170 C   0  0  0  0  0  0  0  0  0  0  0  0
    5.9070   -4.6580   19.7500 O   0  0  0  0  0  0  0  0  0  0  0  0
    6.7710   -4.4870   20.5980 C   0  0  0  0  0  0  0  0  0  0  0  0
    1.7320   -3.7790   25.8530 C   0  0  0  0  0  0  0  0  0  0  0  0
    2.7550   -4.7060   25.8010 C   0  0  0  0  0  0  0  0  0  0  0  0
    5.7880   -6.1380   22.1650 C   0  0  0  0  0  0  0  0  0  0  0  0
    4.9860   -5.7630   23.3830 C   0  0  0  0  0  0  0  0  0  0  0  0
    6.7570   -4.2820   24.1170 C   0  0  0  0  0  0  0  0  0  0  0  0
    7.5860   -4.6670   22.9260 C   0  0  0  0  0  0  0  0  0  0  0  0
    4.0460   -4.3140   26.0870 C   0  0  0  0  0  0  0  0  0  0  0  0
    4.3340   -3.0030   26.4030 C   0  0  0  0  0  0  0  0  0  0  0  0
    3.3130   -2.0730   26.4540 C   0  0  0  0  0  0  0  0  0  0  0  0
    2.0260   -2.4750   26.1770 C   0  0  0  0  0  0  0  0  0  0  0  0
    5.9240   -5.4370   24.4690 N   0  0  0  0  0  0  0  0  0  0  0  0
    6.4200   -5.0720   26.8440 O   0  0  0  0  0  0  0  0  0  0  0  0
    4.7780   -6.7960   26.1610 O   0  0  0  0  0  0  0  0  0  0  0  0
    5.3500   -5.4980   25.9990 S   0  0  0  0  0  0  0  0  0  0  0  0
    0.7380   -1.3080   26.2410 Cl  0  0  0  0  0  0  0  0  0  0  0  0
    8.2590   -3.4380   18.5410 R#  0  0  0  0  0  0  0  0  0  0  0  0
  1  4  1  0  0  0  0
  1  7  1  0  0  0  0
  1 10  1  0  0  0  0
  2  4  1  0  0  0  0
  3  4  2  0  0  0  0
  5  6  2  0  0  0  0
  5 14  1  0  0  0  0
  6 11  1  0  0  0  0
  7  8  1  0  0  0  0
  8 15  1  0  0  0  0
  9 10  1  0  0  0  0
  9 15  1  0  0  0  0
 11 12  2  0  0  0  0
 11 18  1  0  0  0  0
 12 13  1  0  0  0  0
 13 14  2  0  0  0  0
 14 19  1  0  0  0  0
 15 18  1  0  0  0  0
 16 18  2  0  0  0  0
 17 18  2  0  0  0  0
  2 20  1  0  0  0  0
M  RGP  1  20   1
M  END
$$$$
