LIG(A-1101)
  -OEChem-04032019333D

 13 13  0     0  0  0  0  0  0999 V2000
    6.5900   -5.0900   26.5460 C   0  0  0  0  0  0  0  0  0  0  0  0
    9.4640   -3.1570   24.1330 C   0  0  0  0  0  0  0  0  0  0  0  0
    9.3590   -1.8720   23.3230 C   0  0  0  0  0  0  0  0  0  0  0  0
   10.7550   -1.2710   23.3660 C   0  0  0  0  0  0  0  0  0  0  0  0
   11.0670   -0.2310   24.2330 C   0  0  0  0  0  0  0  0  0  0  0  0
   12.3580    0.2710   24.2540 C   0  0  0  0  0  0  0  0  0  0  0  0
   13.3330   -0.2790   23.4380 C   0  0  0  0  0  0  0  0  0  0  0  0
   13.0180   -1.3270   22.5820 C   0  0  0  0  0  0  0  0  0  0  0  0
   11.7290   -1.8190   22.5550 C   0  0  0  0  0  0  0  0  0  0  0  0
    8.2120   -3.6650   24.6320 N   0  0  0  0  0  0  0  0  0  0  0  0
    9.2350   -5.5840   26.1220 O   0  0  0  0  0  0  0  0  0  0  0  0
    8.8020   -3.6590   27.1680 O   0  0  0  0  0  0  0  0  0  0  0  0
    8.2500   -4.4980   26.1180 S   0  0  0  0  0  0  0  0  0  0  0  0
  1 13  1  0  0  0  0
  2  3  1  0  0  0  0
  2 10  1  0  0  0  0
  3  4  1  0  0  0  0
  4  5  2  0  0  0  0
  4  9  1  0  0  0  0
  5  6  1  0  0  0  0
  6  7  2  0  0  0  0
  7  8  1  0  0  0  0
  8  9  2  0  0  0  0
 10 13  1  0  0  0  0
 11 13  2  0  0  0  0
 12 13  2  0  0  0  0
M  END
$$$$
