LIG(B-501)
  -OEChem-12262116323D

 42 46  0     1  0  0  0  0  0999 V2000
    8.7474    1.0611   21.0513 O   0  0  0  0  0  0  0  0  0  0  0  0
    8.2490    0.0169   21.4271 C   0  0  0  0  0  0  0  0  0  0  0  0
    8.6238   -0.7606   22.6929 C   0  0  2  0  0  0  0  0  0  0  0  0
    7.8721   -0.1194   23.8831 C   0  0  0  0  0  0  0  0  0  0  0  0
    8.6609    1.0133   24.4995 C   0  0  0  0  0  0  0  0  0  0  0  0
    9.9479    0.5589   24.9534 O   0  0  0  0  0  0  0  0  0  0  0  0
   10.1406   -0.7765   22.9250 C   0  0  0  0  0  0  0  0  0  0  0  0
   10.7040   -0.0625   23.9898 C   0  0  0  0  0  0  0  0  0  0  0  0
   12.0765    0.0316   24.1541 C   0  0  0  0  0  0  0  0  0  0  0  0
   12.9132   -0.6032   23.2569 C   0  0  0  0  0  0  0  0  0  0  0  0
   10.9991   -1.4331   22.0443 C   0  0  0  0  0  0  0  0  0  0  0  0
   12.3683   -1.3298   22.2234 C   0  0  0  0  0  0  0  0  0  0  0  0
   13.4319   -2.1250   21.0942 Cl  0  0  0  0  0  0  0  0  0  0  0  0
    7.2292   -0.6897   20.7790 N   0  0  0  0  0  0  0  0  0  0  0  0
    6.9866   -1.9366   21.3580 C   0  0  0  0  0  0  0  0  0  0  0  0
    6.0611   -2.6704   21.0477 O   0  0  0  0  0  0  0  0  0  0  0  0
    8.0140   -2.1541   22.4331 C   0  0  0  0  0  0  0  0  0  0  0  0
    6.4440   -0.1472   19.6979 C   0  0  0  0  0  0  0  0  0  0  0  0
    5.3982    0.7733   19.9948 C   0  0  0  0  0  0  0  0  0  0  0  0
    4.8973    1.0233   21.2988 C   0  0  0  0  0  0  0  0  0  0  0  0
    3.8960    1.9291   21.5050 C   0  0  0  0  0  0  0  0  0  0  0  0
    3.3432    2.6279   20.4411 C   0  0  0  0  0  0  0  0  0  0  0  0
    3.7865    2.4205   19.1660 C   0  0  0  0  0  0  0  0  0  0  0  0
    4.8226    1.4906   18.9054 C   0  0  0  0  0  0  0  0  0  0  0  0
    5.3278    1.2339   17.6066 C   0  0  0  0  0  0  0  0  0  0  0  0
    6.3062    0.3769   17.3421 N   0  0  0  0  0  0  0  0  0  0  0  0
    6.8438   -0.2892   18.3752 C   0  0  0  0  0  0  0  0  0  0  0  0
    6.9075    0.2710   23.5265 H   0  0  0  0  0  0  0  0  0  0  0  0
    7.6956   -0.8888   24.6491 H   0  0  0  0  0  0  0  0  0  0  0  0
    8.8032    1.8034   23.7475 H   0  0  0  0  0  0  0  0  0  0  0  0
    8.1002    1.4181   25.3550 H   0  0  0  0  0  0  0  0  0  0  0  0
   12.4888    0.5967   24.9769 H   0  0  0  0  0  0  0  0  0  0  0  0
   13.9852   -0.5299   23.3657 H   0  0  0  0  0  0  0  0  0  0  0  0
   10.5994   -2.0178   21.2289 H   0  0  0  0  0  0  0  0  0  0  0  0
    8.7881   -2.8569   22.0913 H   0  0  0  0  0  0  0  0  0  0  0  0
    7.5410   -2.5451   23.3460 H   0  0  0  0  0  0  0  0  0  0  0  0
    5.3137    0.4895   22.1403 H   0  0  0  0  0  0  0  0  0  0  0  0
    3.5309    2.1033   22.5063 H   0  0  0  0  0  0  0  0  0  0  0  0
    2.5544    3.3428   20.6232 H   0  0  0  0  0  0  0  0  0  0  0  0
    3.3431    2.9706   18.3492 H   0  0  0  0  0  0  0  0  0  0  0  0
    4.8885    1.7703   16.7785 H   0  0  0  0  0  0  0  0  0  0  0  0
    7.6430   -0.9842   18.1637 H   0  0  0  0  0  0  0  0  0  0  0  0
  1  2  2  0  0  0  0
  2  3  1  0  0  0  0
  2 14  1  0  0  0  0
  3  4  1  0  0  0  0
  3  7  1  0  0  0  0
  3 17  1  0  0  0  0
  4  5  1  0  0  0  0
  5  6  1  0  0  0  0
  6  8  1  0  0  0  0
  7  8  2  0  0  0  0
  7 11  1  0  0  0  0
  8  9  1  0  0  0  0
  9 10  2  0  0  0  0
 10 12  1  0  0  0  0
 11 12  2  0  0  0  0
 12 13  1  0  0  0  0
 14 15  1  0  0  0  0
 14 18  1  0  0  0  0
 15 16  2  0  0  0  0
 15 17  1  0  0  0  0
 18 19  2  0  0  0  0
 18 27  1  0  0  0  0
 19 20  1  0  0  0  0
 19 24  1  0  0  0  0
 20 21  2  0  0  0  0
 21 22  1  0  0  0  0
 22 23  2  0  0  0  0
 23 24  1  0  0  0  0
 24 25  2  0  0  0  0
 25 26  1  0  0  0  0
 26 27  2  0  0  0  0
  4 28  1  0  0  0  0
  4 29  1  0  0  0  0
  5 30  1  0  0  0  0
  5 31  1  0  0  0  0
  9 32  1  0  0  0  0
 10 33  1  0  0  0  0
 11 34  1  0  0  0  0
 17 35  1  0  0  0  0
 17 36  1  0  0  0  0
 20 37  1  0  0  0  0
 21 38  1  0  0  0  0
 22 39  1  0  0  0  0
 23 40  1  0  0  0  0
 25 41  1  0  0  0  0
 27 42  1  0  0  0  0
M  END
$$$$
