LIG(A-1101)
  -OEChem-04162022423D

 27 28  0     1  0  0  0  0  0999 V2000
   23.6020   -8.1590    5.5510 C   0  0  0  0  0  0  0  0  0  0  0  0
   24.3630   -6.8860    5.9160 C   0  0  0  0  0  0  0  0  0  0  0  0
   25.7340   -6.8750    5.9130 C   0  0  0  0  0  0  0  0  0  0  0  0
   26.4600   -8.0750    5.5590 C   0  0  0  0  0  0  0  0  0  0  0  0
   25.7220   -9.3240    5.2040 C   0  0  0  0  0  0  0  0  0  0  0  0
   26.5110  -10.5760    4.8470 C   0  0  0  0  0  0  0  0  0  0  0  0
   27.8620  -10.6920    6.6860 C   0  0  0  0  0  0  0  0  0  0  0  0
   28.3350  -11.4820    7.8940 C   0  0  0  0  0  0  0  0  0  0  0  0
   27.4260  -13.4380    6.8560 C   0  0  0  0  0  0  0  0  0  0  0  0
   27.2110  -12.6010    5.6070 C   0  0  0  0  0  0  0  0  0  0  0  0
   24.3120   -9.3370    5.2050 C   0  0  0  0  0  0  0  0  0  0  0  0
   26.8660  -11.2690    5.9440 N   0  3  2  0  0  0  0  0  0  0  0  0
   28.2930  -12.9030    7.7660 O   0  0  0  0  0  0  0  0  0  0  0  0
   21.8170   -8.1260    5.5810 Cl  0  0  0  0  0  0  0  0  0  0  0  0
   27.4948   -9.7186    7.0432 H   0  0  0  0  0  0  0  0  0  0  0  0
   28.7276  -10.5373    6.0250 H   0  0  0  0  0  0  0  0  0  0  0  0
   29.3764  -11.1929    8.0989 H   0  0  0  0  0  0  0  0  0  0  0  0
   27.7017  -11.2019    8.7487 H   0  0  0  0  0  0  0  0  0  0  0  0
   26.9307  -14.3848    7.0129 H   0  0  0  0  0  0  0  0  0  0  0  0
   27.3081  -12.9716    4.5973 H   0  0  0  0  0  0  0  0  0  0  0  0
   26.0597  -11.3268    6.5327 H   0  0  0  0  0  0  0  0  0  0  0  0
   23.8187   -5.9906    6.1776 H   0  0  0  0  0  0  0  0  0  0  0  0
   26.2696   -5.9742    6.1738 H   0  0  0  0  0  0  0  0  0  0  0  0
   27.5399   -8.0678    5.5514 H   0  0  0  0  0  0  0  0  0  0  0  0
   25.8899  -11.2180    4.2050 H   0  0  0  0  0  0  0  0  0  0  0  0
   27.4197  -10.2815    4.3016 H   0  0  0  0  0  0  0  0  0  0  0  0
   23.7764  -10.2378    4.9441 H   0  0  0  0  0  0  0  0  0  0  0  0
  1  2  1  0  0  0  0
  1 11  2  0  0  0  0
  1 14  1  0  0  0  0
  2  3  2  0  0  0  0
  3  4  1  0  0  0  0
  4  5  2  0  0  0  0
  5  6  1  0  0  0  0
  5 11  1  0  0  0  0
  6 12  1  0  0  0  0
  7  8  1  0  0  0  0
  7 12  1  0  0  0  0
  8 13  1  0  0  0  0
  9 10  2  0  0  0  0
  9 13  1  0  0  0  0
 10 12  1  0  0  0  0
  7 15  1  0  0  0  0
  7 16  1  0  0  0  0
  8 17  1  0  0  0  0
  8 18  1  0  0  0  0
  9 19  1  0  0  0  0
 10 20  1  0  0  0  0
 12 21  1  0  0  0  0
  2 22  1  0  0  0  0
  3 23  1  0  0  0  0
  4 24  1  0  0  0  0
  6 25  1  0  0  0  0
  6 26  1  0  0  0  0
 11 27  1  0  0  0  0
M  CHG  1  12   1
M  END
$$$$
