LIG(A-1101)
  -OEChem-04032019393D

 25 26  0     0  0  0  0  0  0999 V2000
    7.2030   -3.8360   21.2630 N   0  0  0  0  0  0  0  0  0  0  0  0
    7.7920   -4.7460   27.6100 C   0  0  0  0  0  0  0  0  0  0  0  0
    7.6280   -4.8190   26.1940 O   0  0  0  0  0  0  0  0  0  0  0  0
    6.5200   -5.4330   25.6990 C   0  0  0  0  0  0  0  0  0  0  0  0
    5.6040   -6.1620   26.4540 C   0  0  0  0  0  0  0  0  0  0  0  0
    4.5010   -6.7540   25.8330 C   0  0  0  0  0  0  0  0  0  0  0  0
    4.2940   -6.6350   24.4760 C   0  0  0  0  0  0  0  0  0  0  0  0
    5.2180   -5.9070   23.7360 C   0  0  0  0  0  0  0  0  0  0  0  0
    6.6430   -4.5980   22.2680 C   0  0  0  0  0  0  0  0  0  0  0  0
    6.7020   -3.6950   19.9970 C   0  0  0  0  0  0  0  0  0  0  0  0
    7.5060   -2.8030   19.0820 C   0  0  0  0  0  0  0  0  0  0  0  0
    6.3370   -5.2990   24.3250 C   0  0  0  0  0  0  0  0  0  0  0  0
    7.1680   -4.6060   23.4600 N   0  0  0  0  0  0  0  0  0  0  0  0
    5.6780   -4.2570   19.6440 O   0  0  0  0  0  0  0  0  0  0  0  0
    5.2230   -5.5870   22.0220 S   0  0  0  0  0  0  0  0  0  0  0  0
    9.0030   -3.5870   18.4170 R#  0  0  0  0  0  0  0  0  0  0  0  0
    8.0471   -3.3448   21.4780 H   0  0  0  0  0  0  0  0  0  0  0  0
    8.7310   -4.2232   27.8444 H   0  0  0  0  0  0  0  0  0  0  0  0
    6.9467   -4.1958   28.0490 H   0  0  0  0  0  0  0  0  0  0  0  0
    7.8244   -5.7629   28.0281 H   0  0  0  0  0  0  0  0  0  0  0  0
    5.7463   -6.2696   27.5192 H   0  0  0  0  0  0  0  0  0  0  0  0
    3.7968   -7.3160   26.4285 H   0  0  0  0  0  0  0  0  0  0  0  0
    3.4391   -7.0938   24.0015 H   0  0  0  0  0  0  0  0  0  0  0  0
    6.8663   -2.5066   18.2377 H   0  0  0  0  0  0  0  0  0  0  0  0
    7.8057   -1.9079   19.6468 H   0  0  0  0  0  0  0  0  0  0  0  0
  1  9  1  0  0  0  0
  1 10  1  0  0  0  0
  2  3  1  0  0  0  0
  3  4  1  0  0  0  0
  4  5  2  0  0  0  0
  4 12  1  0  0  0  0
  5  6  1  0  0  0  0
  6  7  2  0  0  0  0
  7  8  1  0  0  0  0
  8 12  2  0  0  0  0
  8 15  1  0  0  0  0
  9 13  2  0  0  0  0
  9 15  1  0  0  0  0
 10 11  1  0  0  0  0
 10 14  2  0  0  0  0
 12 13  1  0  0  0  0
  1 17  1  0  0  0  0
  2 18  1  0  0  0  0
  2 19  1  0  0  0  0
  2 20  1  0  0  0  0
  5 21  1  0  0  0  0
  6 22  1  0  0  0  0
  7 23  1  0  0  0  0
 11 24  1  0  0  0  0
 11 25  1  0  0  0  0
 11 16  1  0  0  0  0
M  RGP  1  16   1
M  END
$$$$
