LIG(A-1101)
  -OEChem-04292023323D

 23 23  0     0  0  0  0  0  0999 V2000
   22.8900  -20.2580   23.3530 N   0  3  0  0  0  0  0  0  0  0  0  0
   23.8430  -18.0390   24.0540 C   0  0  0  0  0  0  0  0  0  0  0  0
   22.9660  -18.7840   23.0380 C   0  0  0  0  0  0  0  0  0  0  0  0
   21.6430  -20.5910   24.1160 C   0  0  0  0  0  0  0  0  0  0  0  0
   21.2250  -22.0050   23.9310 C   0  0  0  0  0  0  0  0  0  0  0  0
   21.2610  -23.0960   24.8060 C   0  0  0  0  0  0  0  0  0  0  0  0
   20.4370  -25.5260   24.5300 C   0  0  0  0  0  0  0  0  0  0  0  0
   20.6530  -24.1350   24.0920 N   0  0  0  0  0  0  0  0  0  0  0  0
   20.2840  -23.6690   22.8600 N   0  0  0  0  0  0  0  0  0  0  0  0
   20.6190  -22.4390   22.7570 N   0  0  0  0  0  0  0  0  0  0  0  0
   22.8951  -20.7744   22.4966 H   0  0  0  0  0  0  0  0  0  0  0  0
   23.6855  -20.5148   23.9018 H   0  0  0  0  0  0  0  0  0  0  0  0
   23.8769  -16.9703   23.7959 H   0  0  0  0  0  0  0  0  0  0  0  0
   23.4192  -18.1594   25.0619 H   0  0  0  0  0  0  0  0  0  0  0  0
   24.8616  -18.4537   24.0326 H   0  0  0  0  0  0  0  0  0  0  0  0
   21.9513  -18.3600   23.0622 H   0  0  0  0  0  0  0  0  0  0  0  0
   23.3937  -18.6543   22.0329 H   0  0  0  0  0  0  0  0  0  0  0  0
   21.8260  -20.4141   25.1861 H   0  0  0  0  0  0  0  0  0  0  0  0
   20.8312  -19.9346   23.7694 H   0  0  0  0  0  0  0  0  0  0  0  0
   21.6664  -23.1290   25.8065 H   0  0  0  0  0  0  0  0  0  0  0  0
   19.8119  -25.5331   25.4351 H   0  0  0  0  0  0  0  0  0  0  0  0
   19.9312  -26.0876   23.7308 H   0  0  0  0  0  0  0  0  0  0  0  0
   21.4069  -25.9956   24.7507 H   0  0  0  0  0  0  0  0  0  0  0  0
  1  3  1  0  0  0  0
  1  4  1  0  0  0  0
  2  3  1  0  0  0  0
  4  5  1  0  0  0  0
  5  6  2  0  0  0  0
  5 10  1  0  0  0  0
  6  8  1  0  0  0  0
  7  8  1  0  0  0  0
  8  9  1  0  0  0  0
  9 10  2  0  0  0  0
  1 11  1  0  0  0  0
  1 12  1  0  0  0  0
  2 13  1  0  0  0  0
  2 14  1  0  0  0  0
  2 15  1  0  0  0  0
  3 16  1  0  0  0  0
  3 17  1  0  0  0  0
  4 18  1  0  0  0  0
  4 19  1  0  0  0  0
  6 20  1  0  0  0  0
  7 21  1  0  0  0  0
  7 22  1  0  0  0  0
  7 23  1  0  0  0  0
M  CHG  1   1   1
M  END
$$$$
