LIG(A-1101)
  -OEChem-04032019393D

 30 31  0     0  0  0  0  0  0999 V2000
    6.9510   -2.9280   21.0150 N   0  0  0  0  0  0  0  0  0  0  0  0
    7.1400   -2.5550   18.5790 C   0  0  0  0  0  0  0  0  0  0  0  0
    5.7500   -4.1840   19.6030 O   0  0  0  0  0  0  0  0  0  0  0  0
    6.5590   -3.2800   19.7740 C   0  0  0  0  0  0  0  0  0  0  0  0
    8.6740   -5.2950   27.4670 C   0  0  0  0  0  0  0  0  0  0  0  0
    6.5240   -3.7460   22.1510 C   0  0  0  0  0  0  0  0  0  0  0  0
    7.6930   -4.0520   23.0550 C   0  0  0  0  0  0  0  0  0  0  0  0
    8.7820   -1.9950   22.4170 C   0  0  0  0  0  0  0  0  0  0  0  0
    7.6940   -1.7170   21.3940 C   0  0  0  0  0  0  0  0  0  0  0  0
    8.3930   -2.4950   24.8430 C   0  0  0  0  0  0  0  0  0  0  0  0
    8.6840   -3.5860   25.7150 C   0  0  0  0  0  0  0  0  0  0  0  0
    9.5790   -4.6070   25.4640 C   0  0  0  0  0  0  0  0  0  0  0  0
    9.4490   -5.6380   26.4150 C   0  0  0  0  0  0  0  0  0  0  0  0
    8.2500   -2.7870   23.5260 N   0  0  0  0  0  0  0  0  0  0  0  0
    8.2890   -1.3540   25.2870 O   0  0  0  0  0  0  0  0  0  0  0  0
    7.9130   -3.7950   27.2410 S   0  0  0  0  0  0  0  0  0  0  0  0
    8.7580   -3.2860   18.2660 R#  0  0  0  0  0  0  0  0  0  0  0  0
    6.4886   -2.6864   17.7024 H   0  0  0  0  0  0  0  0  0  0  0  0
    7.2449   -1.4826   18.8004 H   0  0  0  0  0  0  0  0  0  0  0  0
    8.5527   -5.9050   28.3500 H   0  0  0  0  0  0  0  0  0  0  0  0
    5.7587   -3.2000   22.7221 H   0  0  0  0  0  0  0  0  0  0  0  0
    6.0992   -4.6895   21.7776 H   0  0  0  0  0  0  0  0  0  0  0  0
    7.3534   -4.6514   23.9125 H   0  0  0  0  0  0  0  0  0  0  0  0
    8.4586   -4.6110   22.4971 H   0  0  0  0  0  0  0  0  0  0  0  0
    9.5996   -2.5506   21.9345 H   0  0  0  0  0  0  0  0  0  0  0  0
    9.1666   -1.0404   22.8053 H   0  0  0  0  0  0  0  0  0  0  0  0
    8.1588   -1.2922   20.4921 H   0  0  0  0  0  0  0  0  0  0  0  0
    6.9877   -0.9892   21.8199 H   0  0  0  0  0  0  0  0  0  0  0  0
   10.2851   -4.6142   24.6469 H   0  0  0  0  0  0  0  0  0  0  0  0
    9.9208   -6.6042   26.3135 H   0  0  0  0  0  0  0  0  0  0  0  0
  1  4  1  0  0  0  0
  1  6  1  0  0  0  0
  1  9  1  0  0  0  0
  2  4  1  0  0  0  0
  3  4  2  0  0  0  0
  5 13  2  0  0  0  0
  5 16  1  0  0  0  0
  6  7  1  0  0  0  0
  7 14  1  0  0  0  0
  8  9  1  0  0  0  0
  8 14  1  0  0  0  0
 10 11  1  0  0  0  0
 10 14  1  0  0  0  0
 10 15  2  0  0  0  0
 11 12  2  0  0  0  0
 11 16  1  0  0  0  0
 12 13  1  0  0  0  0
  2 18  1  0  0  0  0
  2 19  1  0  0  0  0
  5 20  1  0  0  0  0
  6 21  1  0  0  0  0
  6 22  1  0  0  0  0
  7 23  1  0  0  0  0
  7 24  1  0  0  0  0
  8 25  1  0  0  0  0
  8 26  1  0  0  0  0
  9 27  1  0  0  0  0
  9 28  1  0  0  0  0
 12 29  1  0  0  0  0
 13 30  1  0  0  0  0
  2 17  1  0  0  0  0
M  RGP  1  17   1
M  END
$$$$
