LIG(A-1101)
  -OEChem-04162022333D

 32 33  0     0  0  0  0  0  0999 V2000
    6.8280   -2.7170   20.9090 N   0  0  0  0  0  0  0  0  0  0  0  0
    7.1000   -2.5280   18.4610 C   0  0  0  0  0  0  0  0  0  0  0  0
    5.7550   -4.1580   19.5520 O   0  0  0  0  0  0  0  0  0  0  0  0
    6.4960   -3.1870   19.6870 C   0  0  0  0  0  0  0  0  0  0  0  0
    7.6700   -1.5520   21.1940 C   0  0  0  0  0  0  0  0  0  0  0  0
    6.3900   -3.3620   22.1430 C   0  0  0  0  0  0  0  0  0  0  0  0
    7.5990   -3.7790   22.9450 C   0  0  0  0  0  0  0  0  0  0  0  0
    9.5900   -3.0230   24.0960 C   0  0  0  0  0  0  0  0  0  0  0  0
    9.2910   -4.1110   25.0820 C   0  0  0  0  0  0  0  0  0  0  0  0
    9.7470   -5.4240   25.0500 C   0  0  0  0  0  0  0  0  0  0  0  0
    9.4300   -6.1510   26.2210 C   0  0  0  0  0  0  0  0  0  0  0  0
    8.5330   -5.4500   27.0160 C   0  0  0  0  0  0  0  0  0  0  0  0
    8.8520   -1.9520   22.0510 C   0  0  0  0  0  0  0  0  0  0  0  0
    8.4260   -2.6180   23.2870 N   0  3  0  0  0  0  0  0  0  0  0  0
    8.2710   -3.8500   26.4530 S   0  0  0  0  0  0  0  0  0  0  0  0
    7.7100   -6.0260   28.4080 Cl  0  0  0  0  0  0  0  0  0  0  0  0
    8.7580   -3.2080   18.2060 R#  0  0  0  0  0  0  0  0  0  0  0  0
    6.4737   -2.7358   17.5809 H   0  0  0  0  0  0  0  0  0  0  0  0
    7.1641   -1.4410   18.6170 H   0  0  0  0  0  0  0  0  0  0  0  0
    8.0358   -1.1288   20.2469 H   0  0  0  0  0  0  0  0  0  0  0  0
    7.0747   -0.7964   21.7276 H   0  0  0  0  0  0  0  0  0  0  0  0
    5.7844   -2.6568   22.7312 H   0  0  0  0  0  0  0  0  0  0  0  0
    5.7867   -4.2491   21.8997 H   0  0  0  0  0  0  0  0  0  0  0  0
    7.2650   -4.2687   23.8716 H   0  0  0  0  0  0  0  0  0  0  0  0
    8.1981   -4.4858   22.3521 H   0  0  0  0  0  0  0  0  0  0  0  0
    9.9513   -2.1433   24.6489 H   0  0  0  0  0  0  0  0  0  0  0  0
   10.3785   -3.3780   23.4161 H   0  0  0  0  0  0  0  0  0  0  0  0
   10.2881   -5.8458   24.2159 H   0  0  0  0  0  0  0  0  0  0  0  0
    9.8325   -7.1231   26.4647 H   0  0  0  0  0  0  0  0  0  0  0  0
    9.4914   -2.6395   21.4778 H   0  0  0  0  0  0  0  0  0  0  0  0
    9.4249   -1.0498   22.3115 H   0  0  0  0  0  0  0  0  0  0  0  0
    7.8740   -1.9779   23.8214 H   0  0  0  0  0  0  0  0  0  0  0  0
  1  4  1  0  0  0  0
  1  5  1  0  0  0  0
  1  6  1  0  0  0  0
  2  4  1  0  0  0  0
  3  4  2  0  0  0  0
  5 13  1  0  0  0  0
  6  7  1  0  0  0  0
  7 14  1  0  0  0  0
  8  9  1  0  0  0  0
  8 14  1  0  0  0  0
  9 10  2  0  0  0  0
  9 15  1  0  0  0  0
 10 11  1  0  0  0  0
 11 12  2  0  0  0  0
 12 15  1  0  0  0  0
 12 16  1  0  0  0  0
 13 14  1  0  0  0  0
  2 18  1  0  0  0  0
  2 19  1  0  0  0  0
  5 20  1  0  0  0  0
  5 21  1  0  0  0  0
  6 22  1  0  0  0  0
  6 23  1  0  0  0  0
  7 24  1  0  0  0  0
  7 25  1  0  0  0  0
  8 26  1  0  0  0  0
  8 27  1  0  0  0  0
 10 28  1  0  0  0  0
 11 29  1  0  0  0  0
 13 30  1  0  0  0  0
 13 31  1  0  0  0  0
 14 32  1  0  0  0  0
  2 17  1  0  0  0  0
M  CHG  1  14   1
M  RGP  1  17   1
M  END
$$$$
