LIG(A-1101)
  -OEChem-04292023513D

 37 38  0     0  0  0  0  0  0999 V2000
    6.8690   -2.3990   25.9350 N   0  0  0  0  0  0  0  0  0  0  0  0
    5.8960   -0.2310   26.5410 C   0  0  0  0  0  0  0  0  0  0  0  0
    5.2870   -0.2040   25.3300 O   0  0  0  0  0  0  0  0  0  0  0  0
    5.7620    0.7900   27.4840 C   0  0  0  0  0  0  0  0  0  0  0  0
    7.7250   -3.1920   21.8090 C   0  0  0  0  0  0  0  0  0  0  0  0
    7.0720   -2.5970   23.0240 C   0  0  0  0  0  0  0  0  0  0  0  0
    6.4070   -3.8980   19.8250 C   0  0  0  0  0  0  0  0  0  0  0  0
    7.1070   -2.8280   19.0300 C   0  0  0  0  0  0  0  0  0  0  0  0
    6.4120    0.6930   28.7030 C   0  0  0  0  0  0  0  0  0  0  0  0
    7.1950   -0.4040   28.9940 C   0  0  0  0  0  0  0  0  0  0  0  0
    7.3390   -1.4240   28.0660 C   0  0  0  0  0  0  0  0  0  0  0  0
    6.6790   -1.3470   26.8550 C   0  0  0  0  0  0  0  0  0  0  0  0
    5.9640   -3.0910   25.2040 C   0  0  0  0  0  0  0  0  0  0  0  0
    6.5530   -3.7020   23.9460 C   0  0  0  0  0  0  0  0  0  0  0  0
    5.5670   -4.5800   23.1720 C   0  0  0  0  0  0  0  0  0  0  0  0
    6.2360   -5.1470   21.9430 C   0  0  0  0  0  0  0  0  0  0  0  0
    6.7790   -4.0660   21.1100 N   0  0  0  0  0  0  0  0  0  0  0  0
    4.7860   -3.2250   25.5150 O   0  0  0  0  0  0  0  0  0  0  0  0
    5.5460   -4.5930   19.2980 O   0  0  0  0  0  0  0  0  0  0  0  0
    8.6930   -3.4130   18.3630 R#  0  0  0  0  0  0  0  0  0  0  0  0
    7.8204   -2.6769   25.8020 H   0  0  0  0  0  0  0  0  0  0  0  0
    4.9838   -1.0765   25.1080 H   0  0  0  0  0  0  0  0  0  0  0  0
    5.1525    1.6538   27.2631 H   0  0  0  0  0  0  0  0  0  0  0  0
    8.0424   -2.3841   21.1333 H   0  0  0  0  0  0  0  0  0  0  0  0
    8.6032   -3.7782   22.1175 H   0  0  0  0  0  0  0  0  0  0  0  0
    7.8075   -1.9865   23.5684 H   0  0  0  0  0  0  0  0  0  0  0  0
    6.2303   -1.9627   22.7091 H   0  0  0  0  0  0  0  0  0  0  0  0
    6.4595   -2.5241   18.1943 H   0  0  0  0  0  0  0  0  0  0  0  0
    7.2928   -1.9628   19.6834 H   0  0  0  0  0  0  0  0  0  0  0  0
    6.3047    1.4830   29.4316 H   0  0  0  0  0  0  0  0  0  0  0  0
    7.6977   -0.4689   29.9477 H   0  0  0  0  0  0  0  0  0  0  0  0
    7.9648   -2.2755   28.2891 H   0  0  0  0  0  0  0  0  0  0  0  0
    7.4081   -4.3291   24.2385 H   0  0  0  0  0  0  0  0  0  0  0  0
    5.2300   -5.4050   23.8168 H   0  0  0  0  0  0  0  0  0  0  0  0
    4.7004   -3.9743   22.8685 H   0  0  0  0  0  0  0  0  0  0  0  0
    7.0552   -5.8133   22.2512 H   0  0  0  0  0  0  0  0  0  0  0  0
    5.4985   -5.7181   21.3600 H   0  0  0  0  0  0  0  0  0  0  0  0
  1 12  1  0  0  0  0
  1 13  1  0  0  0  0
  2  3  1  0  0  0  0
  2  4  2  0  0  0  0
  2 12  1  0  0  0  0
  4  9  1  0  0  0  0
  5  6  1  0  0  0  0
  5 17  1  0  0  0  0
  6 14  1  0  0  0  0
  7  8  1  0  0  0  0
  7 17  1  0  0  0  0
  7 19  2  0  0  0  0
  9 10  2  0  0  0  0
 10 11  1  0  0  0  0
 11 12  2  0  0  0  0
 13 14  1  0  0  0  0
 13 18  2  0  0  0  0
 14 15  1  0  0  0  0
 15 16  1  0  0  0  0
 16 17  1  0  0  0  0
  1 21  1  0  0  0  0
  3 22  1  0  0  0  0
  4 23  1  0  0  0  0
  5 24  1  0  0  0  0
  5 25  1  0  0  0  0
  6 26  1  0  0  0  0
  6 27  1  0  0  0  0
  8 28  1  0  0  0  0
  8 29  1  0  0  0  0
  9 30  1  0  0  0  0
 10 31  1  0  0  0  0
 11 32  1  0  0  0  0
 14 33  1  0  0  0  0
 15 34  1  0  0  0  0
 15 35  1  0  0  0  0
 16 36  1  0  0  0  0
 16 37  1  0  0  0  0
  8 20  1  0  0  0  0
M  RGP  1  20   1
M  END
$$$$
