LIG(A-1101)
  -OEChem-04292023543D

 38 39  0     0  0  0  0  0  0999 V2000
    8.4250   -2.2200   23.0830 N   0  3  0  0  0  0  0  0  0  0  0  0
   11.2460    2.1310   24.5900 C   0  0  0  0  0  0  0  0  0  0  0  0
    5.7570   -4.2040   19.6120 O   0  0  0  0  0  0  0  0  0  0  0  0
   11.4740    0.7460   24.0560 C   0  0  0  0  0  0  0  0  0  0  0  0
    8.8030   -1.6810   21.7720 C   0  0  0  0  0  0  0  0  0  0  0  0
    6.4620   -3.2010   19.6390 C   0  0  0  0  0  0  0  0  0  0  0  0
    7.0760   -2.6850   18.3670 C   0  0  0  0  0  0  0  0  0  0  0  0
   10.5080   -0.2380   24.1980 C   0  0  0  0  0  0  0  0  0  0  0  0
   12.6500    0.4120   23.4010 C   0  0  0  0  0  0  0  0  0  0  0  0
   12.8530   -0.8600   22.8960 C   0  0  0  0  0  0  0  0  0  0  0  0
   11.8760   -1.8260   23.0500 C   0  0  0  0  0  0  0  0  0  0  0  0
   10.7010   -1.5300   23.7210 C   0  0  0  0  0  0  0  0  0  0  0  0
    9.6120   -2.5590   23.8720 C   0  0  0  0  0  0  0  0  0  0  0  0
    7.5620   -3.3920   22.9270 C   0  0  0  0  0  0  0  0  0  0  0  0
    6.3450   -3.0600   22.0970 C   0  0  0  0  0  0  0  0  0  0  0  0
    7.5850   -1.3610   20.9390 C   0  0  0  0  0  0  0  0  0  0  0  0
    6.7680   -2.5620   20.7910 N   0  0  0  0  0  0  0  0  0  0  0  0
    8.7790   -3.3030   18.2600 R#  0  0  0  0  0  0  0  0  0  0  0  0
    7.9123   -1.5162   23.5748 H   0  0  0  0  0  0  0  0  0  0  0  0
   11.0853    2.0835   25.6772 H   0  0  0  0  0  0  0  0  0  0  0  0
   12.1259    2.7556   24.3765 H   0  0  0  0  0  0  0  0  0  0  0  0
   10.3598    2.5687   24.1072 H   0  0  0  0  0  0  0  0  0  0  0  0
    9.3891   -0.7616   21.9179 H   0  0  0  0  0  0  0  0  0  0  0  0
    9.4147   -2.4254   21.2413 H   0  0  0  0  0  0  0  0  0  0  0  0
    6.4963   -3.0424   17.5032 H   0  0  0  0  0  0  0  0  0  0  0  0
    7.0800   -1.5850   18.3761 H   0  0  0  0  0  0  0  0  0  0  0  0
    9.5795    0.0055   24.6929 H   0  0  0  0  0  0  0  0  0  0  0  0
   13.4215    1.1585   23.2830 H   0  0  0  0  0  0  0  0  0  0  0  0
   13.7729   -1.0978   22.3825 H   0  0  0  0  0  0  0  0  0  0  0  0
   12.0296   -2.8155   22.6454 H   0  0  0  0  0  0  0  0  0  0  0  0
    9.3275   -2.6223   24.9327 H   0  0  0  0  0  0  0  0  0  0  0  0
    9.9953   -3.5339   23.5364 H   0  0  0  0  0  0  0  0  0  0  0  0
    8.1290   -4.1929   22.4300 H   0  0  0  0  0  0  0  0  0  0  0  0
    7.2374   -3.7348   23.9206 H   0  0  0  0  0  0  0  0  0  0  0  0
    5.7338   -3.9648   21.9641 H   0  0  0  0  0  0  0  0  0  0  0  0
    5.7513   -2.2884   22.6090 H   0  0  0  0  0  0  0  0  0  0  0  0
    6.9964   -0.5760   21.4364 H   0  0  0  0  0  0  0  0  0  0  0  0
    7.9018   -1.0083   19.9464 H   0  0  0  0  0  0  0  0  0  0  0  0
  1  5  1  0  0  0  0
  1 13  1  0  0  0  0
  1 14  1  0  0  0  0
  2  4  1  0  0  0  0
  3  6  2  0  0  0  0
  4  8  2  0  0  0  0
  4  9  1  0  0  0  0
  5 16  1  0  0  0  0
  6  7  1  0  0  0  0
  6 17  1  0  0  0  0
  8 12  1  0  0  0  0
  9 10  2  0  0  0  0
 10 11  1  0  0  0  0
 11 12  2  0  0  0  0
 12 13  1  0  0  0  0
 14 15  1  0  0  0  0
 15 17  1  0  0  0  0
 16 17  1  0  0  0  0
  1 19  1  0  0  0  0
  2 20  1  0  0  0  0
  2 21  1  0  0  0  0
  2 22  1  0  0  0  0
  5 23  1  0  0  0  0
  5 24  1  0  0  0  0
  7 25  1  0  0  0  0
  7 26  1  0  0  0  0
  8 27  1  0  0  0  0
  9 28  1  0  0  0  0
 10 29  1  0  0  0  0
 11 30  1  0  0  0  0
 13 31  1  0  0  0  0
 13 32  1  0  0  0  0
 14 33  1  0  0  0  0
 14 34  1  0  0  0  0
 15 35  1  0  0  0  0
 15 36  1  0  0  0  0
 16 37  1  0  0  0  0
 16 38  1  0  0  0  0
  7 18  1  0  0  0  0
M  CHG  1   1   1
M  RGP  1  18   1
M  END
$$$$
