LIG(A-1101)
  -OEChem-04032019403D

 38 38  0     0  0  0  0  0  0999 V2000
    6.9050   -3.2530   26.5180 N   0  0  0  0  0  0  0  0  0  0  0  0
    8.8820   -4.6490   27.0870 C   0  0  0  0  0  0  0  0  0  0  0  0
    4.9020   -3.1340   25.4680 O   0  0  0  0  0  0  0  0  0  0  0  0
    7.4370   -4.3190   27.4040 C   0  0  0  0  0  0  0  0  0  0  0  0
    6.3720   -4.2150   20.1100 C   0  0  0  0  0  0  0  0  0  0  0  0
    6.9220   -3.0840   19.2830 C   0  0  0  0  0  0  0  0  0  0  0  0
    6.5500   -5.5470   27.4350 C   0  0  0  0  0  0  0  0  0  0  0  0
    7.4200   -1.9060   26.7830 C   0  0  0  0  0  0  0  0  0  0  0  0
    6.0860   -3.4870   25.4720 C   0  0  0  0  0  0  0  0  0  0  0  0
    6.7400   -4.0610   24.2270 C   0  0  0  0  0  0  0  0  0  0  0  0
    5.8010   -5.0010   23.4680 C   0  0  0  0  0  0  0  0  0  0  0  0
    6.4650   -5.5020   22.2100 C   0  0  0  0  0  0  0  0  0  0  0  0
    7.7930   -3.4550   22.0240 C   0  0  0  0  0  0  0  0  0  0  0  0
    7.1870   -2.9230   23.3010 C   0  0  0  0  0  0  0  0  0  0  0  0
    6.8590   -4.3720   21.3620 N   0  0  0  0  0  0  0  0  0  0  0  0
    5.5160   -4.9550   19.6440 O   0  0  0  0  0  0  0  0  0  0  0  0
    8.5020   -3.5110   18.4990 R#  0  0  0  0  0  0  0  0  0  0  0  0
    9.2350   -5.4406   27.7644 H   0  0  0  0  0  0  0  0  0  0  0  0
    8.9588   -4.9961   26.0460 H   0  0  0  0  0  0  0  0  0  0  0  0
    9.5011   -3.7496   27.2202 H   0  0  0  0  0  0  0  0  0  0  0  0
    7.4319   -3.9100   28.4251 H   0  0  0  0  0  0  0  0  0  0  0  0
    6.1937   -2.8329   18.4978 H   0  0  0  0  0  0  0  0  0  0  0  0
    7.0746   -2.2108   19.9344 H   0  0  0  0  0  0  0  0  0  0  0  0
    6.9902   -6.3011   28.1039 H   0  0  0  0  0  0  0  0  0  0  0  0
    5.5515   -5.2687   27.8031 H   0  0  0  0  0  0  0  0  0  0  0  0
    6.4640   -5.9627   26.4202 H   0  0  0  0  0  0  0  0  0  0  0  0
    6.9669   -1.1942   26.0773 H   0  0  0  0  0  0  0  0  0  0  0  0
    7.1669   -1.6128   27.8125 H   0  0  0  0  0  0  0  0  0  0  0  0
    8.5129   -1.9003   26.6583 H   0  0  0  0  0  0  0  0  0  0  0  0
    7.6307   -4.6306   24.5307 H   0  0  0  0  0  0  0  0  0  0  0  0
    5.5480   -5.8574   24.1104 H   0  0  0  0  0  0  0  0  0  0  0  0
    4.8820   -4.4583   23.2016 H   0  0  0  0  0  0  0  0  0  0  0  0
    7.3588   -6.0845   22.4779 H   0  0  0  0  0  0  0  0  0  0  0  0
    5.7616   -6.1428   21.6581 H   0  0  0  0  0  0  0  0  0  0  0  0
    8.0157   -2.6146   21.3501 H   0  0  0  0  0  0  0  0  0  0  0  0
    8.7234   -3.9922   22.2599 H   0  0  0  0  0  0  0  0  0  0  0  0
    7.9358   -2.3099   23.8238 H   0  0  0  0  0  0  0  0  0  0  0  0
    6.3143   -2.3018   23.0509 H   0  0  0  0  0  0  0  0  0  0  0  0
  1  4  1  0  0  0  0
  1  8  1  0  0  0  0
  1  9  1  0  0  0  0
  2  4  1  0  0  0  0
  3  9  2  0  0  0  0
  4  7  1  0  0  0  0
  5  6  1  0  0  0  0
  5 15  1  0  0  0  0
  5 16  2  0  0  0  0
  9 10  1  0  0  0  0
 10 11  1  0  0  0  0
 10 14  1  0  0  0  0
 11 12  1  0  0  0  0
 12 15  1  0  0  0  0
 13 14  1  0  0  0  0
 13 15  1  0  0  0  0
  2 18  1  0  0  0  0
  2 19  1  0  0  0  0
  2 20  1  0  0  0  0
  4 21  1  0  0  0  0
  6 22  1  0  0  0  0
  6 23  1  0  0  0  0
  7 24  1  0  0  0  0
  7 25  1  0  0  0  0
  7 26  1  0  0  0  0
  8 27  1  0  0  0  0
  8 28  1  0  0  0  0
  8 29  1  0  0  0  0
 10 30  1  0  0  0  0
 11 31  1  0  0  0  0
 11 32  1  0  0  0  0
 12 33  1  0  0  0  0
 12 34  1  0  0  0  0
 13 35  1  0  0  0  0
 13 36  1  0  0  0  0
 14 37  1  0  0  0  0
 14 38  1  0  0  0  0
  6 17  1  0  0  0  0
M  RGP  1  17   1
M  END
$$$$
