LIG(A-1101)
  -OEChem-04292023303D

 36 37  0     0  0  0  0  0  0999 V2000
    6.6280   -4.1540   21.3880 N   0  0  0  0  0  0  0  0  0  0  0  0
    6.8970   -2.9960   19.2290 C   0  0  0  0  0  0  0  0  0  0  0  0
    5.5030   -4.8740   19.5690 O   0  0  0  0  0  0  0  0  0  0  0  0
    6.2900   -4.0870   20.0780 C   0  0  0  0  0  0  0  0  0  0  0  0
    6.6600    0.6500   28.7340 C   0  0  0  0  0  0  0  0  0  0  0  0
    5.7160    1.5030   28.2100 C   0  0  0  0  0  0  0  0  0  0  0  0
    5.0660    1.1700   27.0430 C   0  0  0  0  0  0  0  0  0  0  0  0
    5.3550   -0.0190   26.3910 C   0  0  0  0  0  0  0  0  0  0  0  0
    5.9710   -5.0790   22.3240 C   0  0  0  0  0  0  0  0  0  0  0  0
    5.3610   -4.3210   23.4990 C   0  0  0  0  0  0  0  0  0  0  0  0
    6.4190   -3.4600   24.1770 C   0  0  0  0  0  0  0  0  0  0  0  0
    7.0370   -2.5200   23.1520 C   0  0  0  0  0  0  0  0  0  0  0  0
    7.6590   -3.3270   22.0240 C   0  0  0  0  0  0  0  0  0  0  0  0
    6.6830   -2.1940   26.2750 C   0  0  0  0  0  0  0  0  0  0  0  0
    6.3010   -0.8940   26.9150 C   0  0  0  0  0  0  0  0  0  0  0  0
    6.9560   -0.5410   28.0910 C   0  0  0  0  0  0  0  0  0  0  0  0
    5.8800   -2.6920   25.3050 N   0  0  0  0  0  0  0  0  0  0  0  0
    7.7300   -2.7570   26.5950 O   0  0  0  0  0  0  0  0  0  0  0  0
    8.5360   -3.3570   18.5280 R#  0  0  0  0  0  0  0  0  0  0  0  0
    6.2094   -2.7964   18.3939 H   0  0  0  0  0  0  0  0  0  0  0  0
    6.9879   -2.0944   19.8526 H   0  0  0  0  0  0  0  0  0  0  0  0
    7.1716    0.9096   29.6490 H   0  0  0  0  0  0  0  0  0  0  0  0
    5.4857    2.4308   28.7126 H   0  0  0  0  0  0  0  0  0  0  0  0
    4.3253    1.8401   26.6322 H   0  0  0  0  0  0  0  0  0  0  0  0
    4.8436   -0.2668   25.4726 H   0  0  0  0  0  0  0  0  0  0  0  0
    5.1753   -5.6230   21.7940 H   0  0  0  0  0  0  0  0  0  0  0  0
    6.7143   -5.7952   22.7041 H   0  0  0  0  0  0  0  0  0  0  0  0
    4.5483   -3.6765   23.1328 H   0  0  0  0  0  0  0  0  0  0  0  0
    4.9583   -5.0414   24.2262 H   0  0  0  0  0  0  0  0  0  0  0  0
    7.2115   -4.1257   24.5497 H   0  0  0  0  0  0  0  0  0  0  0  0
    6.2566   -1.8615   22.7429 H   0  0  0  0  0  0  0  0  0  0  0  0
    7.8139   -1.9106   23.6368 H   0  0  0  0  0  0  0  0  0  0  0  0
    8.4500   -3.9749   22.4296 H   0  0  0  0  0  0  0  0  0  0  0  0
    8.0914   -2.6429   21.2790 H   0  0  0  0  0  0  0  0  0  0  0  0
    7.7023   -1.2019   28.5065 H   0  0  0  0  0  0  0  0  0  0  0  0
    4.8943   -2.5322   25.3589 H   0  0  0  0  0  0  0  0  0  0  0  0
  1  4  1  0  0  0  0
  1  9  1  0  0  0  0
  1 13  1  0  0  0  0
  2  4  1  0  0  0  0
  3  4  2  0  0  0  0
  5  6  2  0  0  0  0
  5 16  1  0  0  0  0
  6  7  1  0  0  0  0
  7  8  2  0  0  0  0
  8 15  1  0  0  0  0
  9 10  1  0  0  0  0
 10 11  1  0  0  0  0
 11 12  1  0  0  0  0
 11 17  1  0  0  0  0
 12 13  1  0  0  0  0
 14 15  1  0  0  0  0
 14 17  1  0  0  0  0
 14 18  2  0  0  0  0
 15 16  2  0  0  0  0
  2 20  1  0  0  0  0
  2 21  1  0  0  0  0
  5 22  1  0  0  0  0
  6 23  1  0  0  0  0
  7 24  1  0  0  0  0
  8 25  1  0  0  0  0
  9 26  1  0  0  0  0
  9 27  1  0  0  0  0
 10 28  1  0  0  0  0
 10 29  1  0  0  0  0
 11 30  1  0  0  0  0
 12 31  1  0  0  0  0
 12 32  1  0  0  0  0
 13 33  1  0  0  0  0
 13 34  1  0  0  0  0
 16 35  1  0  0  0  0
 17 36  1  0  0  0  0
  2 19  1  0  0  0  0
M  RGP  1  19   1
M  END
$$$$
