LIG(A-701)
  -OEChem-04032019403D

 39 40  0     0  0  0  0  0  0999 V2000
   13.3960   -1.1050   22.5600 C   0  0  0  0  0  0  0  0  0  0  0  0
    7.5180    2.7310   29.3150 C   0  0  0  0  0  0  0  0  0  0  0  0
    6.3240    2.6450   30.0030 C   0  0  0  0  0  0  0  0  0  0  0  0
    5.8490    3.7750   30.8670 C   0  0  0  0  0  0  0  0  0  0  0  0
    5.5850    1.4830   29.8770 C   0  0  0  0  0  0  0  0  0  0  0  0
    6.0160    0.4270   29.0890 C   0  0  0  0  0  0  0  0  0  0  0  0
   11.8700   -0.1610   24.1700 C   0  0  0  0  0  0  0  0  0  0  0  0
   11.1660   -0.4200   25.4800 C   0  0  0  0  0  0  0  0  0  0  0  0
   10.8450   -2.7490   24.7900 C   0  0  0  0  0  0  0  0  0  0  0  0
   11.6140   -2.4270   23.5260 C   0  0  0  0  0  0  0  0  0  0  0  0
    8.9780   -1.5000   25.8560 C   0  0  0  0  0  0  0  0  0  0  0  0
    8.5660   -0.2370   26.6000 C   0  0  0  0  0  0  0  0  0  0  0  0
    7.2150    0.5330   28.4000 C   0  0  0  0  0  0  0  0  0  0  0  0
    7.9700    1.6950   28.5140 C   0  0  0  0  0  0  0  0  0  0  0  0
   12.5890   -1.3610   23.7540 N   0  3  0  0  0  0  0  0  0  0  0  0
   10.2410   -1.5520   25.3800 N   0  0  0  0  0  0  0  0  0  0  0  0
    8.1660   -2.4180   25.7270 O   0  0  0  0  0  0  0  0  0  0  0  0
    7.6280   -0.5210   27.6270 O   0  0  0  0  0  0  0  0  0  0  0  0
   14.1157   -0.2998   22.7689 H   0  0  0  0  0  0  0  0  0  0  0  0
   13.9400   -2.0198   22.2822 H   0  0  0  0  0  0  0  0  0  0  0  0
   12.7388   -0.8033   21.7312 H   0  0  0  0  0  0  0  0  0  0  0  0
    8.1139    3.6274   29.4034 H   0  0  0  0  0  0  0  0  0  0  0  0
    5.7263    4.6798   30.2536 H   0  0  0  0  0  0  0  0  0  0  0  0
    4.8842    3.5075   31.3226 H   0  0  0  0  0  0  0  0  0  0  0  0
    6.5880    3.9665   31.6590 H   0  0  0  0  0  0  0  0  0  0  0  0
    4.6476    1.3959   30.4063 H   0  0  0  0  0  0  0  0  0  0  0  0
    5.4223   -0.4719   29.0122 H   0  0  0  0  0  0  0  0  0  0  0  0
   11.1285    0.1058   23.4026 H   0  0  0  0  0  0  0  0  0  0  0  0
   12.5826    0.6676   24.2951 H   0  0  0  0  0  0  0  0  0  0  0  0
   11.9179   -0.6404   26.2520 H   0  0  0  0  0  0  0  0  0  0  0  0
   10.6003    0.4792   25.7653 H   0  0  0  0  0  0  0  0  0  0  0  0
   10.0480   -3.4676   24.5484 H   0  0  0  0  0  0  0  0  0  0  0  0
   11.5337   -3.1974   25.5212 H   0  0  0  0  0  0  0  0  0  0  0  0
   12.1432   -3.3304   23.1886 H   0  0  0  0  0  0  0  0  0  0  0  0
   10.9061   -2.1047   22.7482 H   0  0  0  0  0  0  0  0  0  0  0  0
    9.4597    0.2211   27.0488 H   0  0  0  0  0  0  0  0  0  0  0  0
    8.1125    0.4665   25.8862 H   0  0  0  0  0  0  0  0  0  0  0  0
    8.9044    1.7895   27.9806 H   0  0  0  0  0  0  0  0  0  0  0  0
   13.1986   -1.6407   24.4958 H   0  0  0  0  0  0  0  0  0  0  0  0
  1 15  1  0  0  0  0
  2  3  2  0  0  0  0
  2 14  1  0  0  0  0
  3  4  1  0  0  0  0
  3  5  1  0  0  0  0
  5  6  2  0  0  0  0
  6 13  1  0  0  0  0
  7  8  1  0  0  0  0
  7 15  1  0  0  0  0
  8 16  1  0  0  0  0
  9 10  1  0  0  0  0
  9 16  1  0  0  0  0
 10 15  1  0  0  0  0
 11 12  1  0  0  0  0
 11 16  1  0  0  0  0
 11 17  2  0  0  0  0
 12 18  1  0  0  0  0
 13 14  2  0  0  0  0
 13 18  1  0  0  0  0
  1 19  1  0  0  0  0
  1 20  1  0  0  0  0
  1 21  1  0  0  0  0
  2 22  1  0  0  0  0
  4 23  1  0  0  0  0
  4 24  1  0  0  0  0
  4 25  1  0  0  0  0
  5 26  1  0  0  0  0
  6 27  1  0  0  0  0
  7 28  1  0  0  0  0
  7 29  1  0  0  0  0
  8 30  1  0  0  0  0
  8 31  1  0  0  0  0
  9 32  1  0  0  0  0
  9 33  1  0  0  0  0
 10 34  1  0  0  0  0
 10 35  1  0  0  0  0
 12 36  1  0  0  0  0
 12 37  1  0  0  0  0
 14 38  1  0  0  0  0
 15 39  1  0  0  0  0
M  CHG  1  15   1
M  END
$$$$
