LIG(A-1101)
  -OEChem-04032019393D

 35 36  0     0  0  0  0  0  0999 V2000
    5.5330   -3.6480   23.7570 N   0  0  0  0  0  0  0  0  0  0  0  0
    1.2830   -2.3310   28.3070 C   0  0  0  0  0  0  0  0  0  0  0  0
    2.7030   -2.2030   28.3130 O   0  0  0  0  0  0  0  0  0  0  0  0
    3.3890   -2.5710   27.1860 C   0  0  0  0  0  0  0  0  0  0  0  0
    6.4510   -2.6830   23.1190 C   0  0  0  0  0  0  0  0  0  0  0  0
    6.3360   -4.1570   19.9900 C   0  0  0  0  0  0  0  0  0  0  0  0
    6.8880   -3.0100   19.1800 C   0  0  0  0  0  0  0  0  0  0  0  0
    2.8880   -3.5300   26.3160 C   0  0  0  0  0  0  0  0  0  0  0  0
    3.6040   -3.8790   25.1870 C   0  0  0  0  0  0  0  0  0  0  0  0
    4.8390   -3.2940   24.9030 C   0  0  0  0  0  0  0  0  0  0  0  0
    5.3240   -2.3260   25.7860 C   0  0  0  0  0  0  0  0  0  0  0  0
    4.6110   -1.9710   26.9170 C   0  0  0  0  0  0  0  0  0  0  0  0
    5.2600   -4.9510   23.1230 C   0  0  0  0  0  0  0  0  0  0  0  0
    6.3010   -5.3930   22.1190 C   0  0  0  0  0  0  0  0  0  0  0  0
    7.4000   -3.2910   22.1110 C   0  0  0  0  0  0  0  0  0  0  0  0
    6.6880   -4.2610   21.2920 N   0  0  0  0  0  0  0  0  0  0  0  0
    5.5890   -4.9650   19.4540 O   0  0  0  0  0  0  0  0  0  0  0  0
    8.5170   -3.3680   18.4570 R#  0  0  0  0  0  0  0  0  0  0  0  0
    0.8802   -1.9984   29.2751 H   0  0  0  0  0  0  0  0  0  0  0  0
    0.8624   -1.7102   27.5022 H   0  0  0  0  0  0  0  0  0  0  0  0
    1.0105   -3.3834   28.1387 H   0  0  0  0  0  0  0  0  0  0  0  0
    5.8459   -1.9216   22.6051 H   0  0  0  0  0  0  0  0  0  0  0  0
    7.0491   -2.2045   23.9085 H   0  0  0  0  0  0  0  0  0  0  0  0
    6.1844   -2.7865   18.3646 H   0  0  0  0  0  0  0  0  0  0  0  0
    6.9810   -2.1313   19.8352 H   0  0  0  0  0  0  0  0  0  0  0  0
    1.9391   -4.0030   26.5216 H   0  0  0  0  0  0  0  0  0  0  0  0
    3.2003   -4.6186   24.5114 H   0  0  0  0  0  0  0  0  0  0  0  0
    6.2705   -1.8473   25.5824 H   0  0  0  0  0  0  0  0  0  0  0  0
    5.0060   -1.2258   27.5916 H   0  0  0  0  0  0  0  0  0  0  0  0
    5.2019   -5.7124   23.9148 H   0  0  0  0  0  0  0  0  0  0  0  0
    4.2912   -4.8848   22.6062 H   0  0  0  0  0  0  0  0  0  0  0  0
    7.1838   -5.7772   22.6511 H   0  0  0  0  0  0  0  0  0  0  0  0
    5.8827   -6.1864   21.4822 H   0  0  0  0  0  0  0  0  0  0  0  0
    7.8076   -2.4976   21.4673 H   0  0  0  0  0  0  0  0  0  0  0  0
    8.2234   -3.7931   22.6401 H   0  0  0  0  0  0  0  0  0  0  0  0
  1  5  1  0  0  0  0
  1 10  1  0  0  0  0
  1 13  1  0  0  0  0
  2  3  1  0  0  0  0
  3  4  1  0  0  0  0
  4  8  2  0  0  0  0
  4 12  1  0  0  0  0
  5 15  1  0  0  0  0
  6  7  1  0  0  0  0
  6 16  1  0  0  0  0
  6 17  2  0  0  0  0
  8  9  1  0  0  0  0
  9 10  2  0  0  0  0
 10 11  1  0  0  0  0
 11 12  2  0  0  0  0
 13 14  1  0  0  0  0
 14 16  1  0  0  0  0
 15 16  1  0  0  0  0
  2 19  1  0  0  0  0
  2 20  1  0  0  0  0
  2 21  1  0  0  0  0
  5 22  1  0  0  0  0
  5 23  1  0  0  0  0
  7 24  1  0  0  0  0
  7 25  1  0  0  0  0
  8 26  1  0  0  0  0
  9 27  1  0  0  0  0
 11 28  1  0  0  0  0
 12 29  1  0  0  0  0
 13 30  1  0  0  0  0
 13 31  1  0  0  0  0
 14 32  1  0  0  0  0
 14 33  1  0  0  0  0
 15 34  1  0  0  0  0
 15 35  1  0  0  0  0
  7 18  1  0  0  0  0
M  RGP  1  18   1
M  END
$$$$
