LIG(A-1101)
  -OEChem-04032019393D

 39 40  0     0  0  0  0  0  0999 V2000
    6.7690   -4.2560   21.4030 N   0  0  0  0  0  0  0  0  0  0  0  0
    6.8570   -3.0210   19.2750 C   0  0  0  0  0  0  0  0  0  0  0  0
    5.4850   -4.9040   19.6590 O   0  0  0  0  0  0  0  0  0  0  0  0
    6.3150   -4.1360   20.1320 C   0  0  0  0  0  0  0  0  0  0  0  0
    7.0460   -4.7320   29.1990 C   0  0  0  0  0  0  0  0  0  0  0  0
    5.6060   -4.3430   28.9100 C   0  0  0  0  0  0  0  0  0  0  0  0
    5.5130   -3.1880   27.9270 C   0  0  0  0  0  0  0  0  0  0  0  0
    7.6890   -3.3490   22.1040 C   0  0  0  0  0  0  0  0  0  0  0  0
    7.0030   -2.7450   23.3130 C   0  0  0  0  0  0  0  0  0  0  0  0
    6.4670   -3.8470   24.2350 C   0  0  0  0  0  0  0  0  0  0  0  0
    5.5580   -4.7750   23.4460 C   0  0  0  0  0  0  0  0  0  0  0  0
    6.2990   -5.3480   22.2630 C   0  0  0  0  0  0  0  0  0  0  0  0
    5.7570   -3.2940   25.4510 C   0  0  0  0  0  0  0  0  0  0  0  0
    7.6910   -3.7900   27.0000 C   0  0  0  0  0  0  0  0  0  0  0  0
    7.7690   -5.0060   27.8950 C   0  0  0  0  0  0  0  0  0  0  0  0
    6.2960   -3.4370   26.7080 N   0  0  0  0  0  0  0  0  0  0  0  0
    4.6740   -2.7310   25.3100 O   0  0  0  0  0  0  0  0  0  0  0  0
    8.4550   -3.4660   18.5330 R#  0  0  0  0  0  0  0  0  0  0  0  0
    6.1374   -2.8061   18.4712 H   0  0  0  0  0  0  0  0  0  0  0  0
    6.9897   -2.1240   19.8978 H   0  0  0  0  0  0  0  0  0  0  0  0
    7.5479   -3.9100   29.7304 H   0  0  0  0  0  0  0  0  0  0  0  0
    7.0626   -5.6369   29.8242 H   0  0  0  0  0  0  0  0  0  0  0  0
    5.0817   -5.2124   28.4866 H   0  0  0  0  0  0  0  0  0  0  0  0
    5.1225   -4.0466   29.8525 H   0  0  0  0  0  0  0  0  0  0  0  0
    4.4588   -3.0430   27.6483 H   0  0  0  0  0  0  0  0  0  0  0  0
    5.8925   -2.2770   28.4128 H   0  0  0  0  0  0  0  0  0  0  0  0
    8.5755   -3.9117   22.4318 H   0  0  0  0  0  0  0  0  0  0  0  0
    7.9976   -2.5441   21.4207 H   0  0  0  0  0  0  0  0  0  0  0  0
    7.7253   -2.1285   23.8682 H   0  0  0  0  0  0  0  0  0  0  0  0
    6.1657   -2.1157   22.9769 H   0  0  0  0  0  0  0  0  0  0  0  0
    7.3273   -4.4364   24.5850 H   0  0  0  0  0  0  0  0  0  0  0  0
    5.2230   -5.5958   24.0973 H   0  0  0  0  0  0  0  0  0  0  0  0
    4.6841   -4.2104   23.0887 H   0  0  0  0  0  0  0  0  0  0  0  0
    7.1611   -5.9316   22.6183 H   0  0  0  0  0  0  0  0  0  0  0  0
    5.6249   -6.0016   21.6899 H   0  0  0  0  0  0  0  0  0  0  0  0
    8.1784   -2.9418   27.5030 H   0  0  0  0  0  0  0  0  0  0  0  0
    8.2124   -4.0050   26.0556 H   0  0  0  0  0  0  0  0  0  0  0  0
    8.8237   -5.2383   28.1042 H   0  0  0  0  0  0  0  0  0  0  0  0
    7.2983   -5.8621   27.3895 H   0  0  0  0  0  0  0  0  0  0  0  0
  1  4  1  0  0  0  0
  1  8  1  0  0  0  0
  1 12  1  0  0  0  0
  2  4  1  0  0  0  0
  3  4  2  0  0  0  0
  5  6  1  0  0  0  0
  5 15  1  0  0  0  0
  6  7  1  0  0  0  0
  7 16  1  0  0  0  0
  8  9  1  0  0  0  0
  9 10  1  0  0  0  0
 10 11  1  0  0  0  0
 10 13  1  0  0  0  0
 11 12  1  0  0  0  0
 13 16  1  0  0  0  0
 13 17  2  0  0  0  0
 14 15  1  0  0  0  0
 14 16  1  0  0  0  0
  2 19  1  0  0  0  0
  2 20  1  0  0  0  0
  5 21  1  0  0  0  0
  5 22  1  0  0  0  0
  6 23  1  0  0  0  0
  6 24  1  0  0  0  0
  7 25  1  0  0  0  0
  7 26  1  0  0  0  0
  8 27  1  0  0  0  0
  8 28  1  0  0  0  0
  9 29  1  0  0  0  0
  9 30  1  0  0  0  0
 10 31  1  0  0  0  0
 11 32  1  0  0  0  0
 11 33  1  0  0  0  0
 12 34  1  0  0  0  0
 12 35  1  0  0  0  0
 14 36  1  0  0  0  0
 14 37  1  0  0  0  0
 15 38  1  0  0  0  0
 15 39  1  0  0  0  0
  2 18  1  0  0  0  0
M  RGP  1  18   1
M  END
$$$$
