LIG(A-1101)
  -OEChem-04292023483D

 25 26  0     0  0  0  0  0  0999 V2000
    7.5350   -4.6270   21.2000 N   0  0  0  0  0  0  0  0  0  0  0  0
    7.1330   -3.0420   19.3850 C   0  0  0  0  0  0  0  0  0  0  0  0
    5.7660   -4.9120   19.8320 O   0  0  0  0  0  0  0  0  0  0  0  0
    6.7620   -4.2760   20.1820 C   0  0  0  0  0  0  0  0  0  0  0  0
    7.0630   -5.4840   22.2720 C   0  0  0  0  0  0  0  0  0  0  0  0
    5.9870   -4.7940   23.0680 C   0  0  0  0  0  0  0  0  0  0  0  0
    6.1580   -3.4850   23.4810 C   0  0  0  0  0  0  0  0  0  0  0  0
    5.1830   -2.7990   24.2100 C   0  0  0  0  0  0  0  0  0  0  0  0
    4.0410   -3.4870   24.4940 C   0  0  0  0  0  0  0  0  0  0  0  0
    1.9960   -4.1240   25.1260 C   0  0  0  0  0  0  0  0  0  0  0  0
    3.8540   -4.7860   24.0790 C   0  0  0  0  0  0  0  0  0  0  0  0
    4.7970   -5.4660   23.3620 C   0  0  0  0  0  0  0  0  0  0  0  0
    2.9360   -3.0490   25.1840 O   0  0  0  0  0  0  0  0  0  0  0  0
    2.6200   -5.2370   24.4860 O   0  0  0  0  0  0  0  0  0  0  0  0
    8.5820   -3.3270   18.3320 R#  0  0  0  0  0  0  0  0  0  0  0  0
    8.4759   -4.2897   21.2304 H   0  0  0  0  0  0  0  0  0  0  0  0
    6.2810   -2.7602   18.7488 H   0  0  0  0  0  0  0  0  0  0  0  0
    7.3565   -2.2218   20.0830 H   0  0  0  0  0  0  0  0  0  0  0  0
    6.6559   -6.4107   21.8413 H   0  0  0  0  0  0  0  0  0  0  0  0
    7.9046   -5.7276   22.9371 H   0  0  0  0  0  0  0  0  0  0  0  0
    7.0769   -2.9755   23.2314 H   0  0  0  0  0  0  0  0  0  0  0  0
    5.3266   -1.7780   24.5313 H   0  0  0  0  0  0  0  0  0  0  0  0
    1.6904   -4.4051   26.1446 H   0  0  0  0  0  0  0  0  0  0  0  0
    1.1116   -3.8130   24.5506 H   0  0  0  0  0  0  0  0  0  0  0  0
    4.6300   -6.4818   23.0354 H   0  0  0  0  0  0  0  0  0  0  0  0
  1  4  1  0  0  0  0
  1  5  1  0  0  0  0
  2  4  1  0  0  0  0
  3  4  2  0  0  0  0
  5  6  1  0  0  0  0
  6  7  2  0  0  0  0
  6 12  1  0  0  0  0
  7  8  1  0  0  0  0
  8  9  2  0  0  0  0
  9 11  1  0  0  0  0
  9 13  1  0  0  0  0
 10 13  1  0  0  0  0
 10 14  1  0  0  0  0
 11 12  2  0  0  0  0
 11 14  1  0  0  0  0
  1 16  1  0  0  0  0
  2 17  1  0  0  0  0
  2 18  1  0  0  0  0
  5 19  1  0  0  0  0
  5 20  1  0  0  0  0
  7 21  1  0  0  0  0
  8 22  1  0  0  0  0
 10 23  1  0  0  0  0
 10 24  1  0  0  0  0
 12 25  1  0  0  0  0
  2 15  1  0  0  0  0
M  RGP  1  15   1
M  END
$$$$
