LIG(A-1101)
  -OEChem-04292023503D

 33 34  0     0  0  0  0  0  0999 V2000
    5.5540   -4.8850   26.0300 N   0  0  0  0  0  0  0  0  0  0  0  0
    7.0110   -5.0180   26.0910 C   0  0  0  0  0  0  0  0  0  0  0  0
    4.9120   -5.7580   25.4670 O   0  0  0  0  0  0  0  0  0  0  0  0
    7.5450   -5.4250   27.3080 C   0  0  0  0  0  0  0  0  0  0  0  0
    6.5970   -3.9330   19.7480 C   0  0  0  0  0  0  0  0  0  0  0  0
    7.2090   -2.8290   18.9400 C   0  0  0  0  0  0  0  0  0  0  0  0
    8.9110   -5.5710   27.4400 C   0  0  0  0  0  0  0  0  0  0  0  0
    9.7490   -5.3150   26.3710 C   0  0  0  0  0  0  0  0  0  0  0  0
    9.2280   -4.9060   25.1540 C   0  0  0  0  0  0  0  0  0  0  0  0
    7.8540   -4.7510   24.9870 C   0  0  0  0  0  0  0  0  0  0  0  0
    7.7400   -3.1240   23.0620 C   0  0  0  0  0  0  0  0  0  0  0  0
    8.1760   -3.4440   21.6480 C   0  0  0  0  0  0  0  0  0  0  0  0
    6.7660   -5.4370   21.6620 C   0  0  0  0  0  0  0  0  0  0  0  0
    6.2790   -5.0820   23.0460 C   0  0  0  0  0  0  0  0  0  0  0  0
    7.3150   -4.3380   23.7700 N   0  0  0  0  0  0  0  0  0  0  0  0
    7.1520   -4.2240   20.9440 N   0  0  0  0  0  0  0  0  0  0  0  0
    5.0370   -3.9280   26.5830 O   0  0  0  0  0  0  0  0  0  0  0  0
    5.6660   -4.5720   19.2830 O   0  0  0  0  0  0  0  0  0  0  0  0
    8.8090   -3.4260   18.3390 R#  0  0  0  0  0  0  0  0  0  0  0  0
    6.8942   -5.6260   28.1461 H   0  0  0  0  0  0  0  0  0  0  0  0
    6.5572   -2.5785   18.0901 H   0  0  0  0  0  0  0  0  0  0  0  0
    7.3516   -1.9372   19.5680 H   0  0  0  0  0  0  0  0  0  0  0  0
    9.3279   -5.8873   28.3847 H   0  0  0  0  0  0  0  0  0  0  0  0
   10.8163   -5.4345   26.4850 H   0  0  0  0  0  0  0  0  0  0  0  0
    9.8934   -4.7056   24.3273 H   0  0  0  0  0  0  0  0  0  0  0  0
    8.5821   -2.6682   23.6034 H   0  0  0  0  0  0  0  0  0  0  0  0
    6.8996   -2.4151   23.0274 H   0  0  0  0  0  0  0  0  0  0  0  0
    8.3489   -2.5038   21.1038 H   0  0  0  0  0  0  0  0  0  0  0  0
    9.1096   -4.0247   21.6825 H   0  0  0  0  0  0  0  0  0  0  0  0
    7.6356   -6.1059   21.7418 H   0  0  0  0  0  0  0  0  0  0  0  0
    5.9611   -5.9461   21.1116 H   0  0  0  0  0  0  0  0  0  0  0  0
    5.3746   -4.4610   22.9652 H   0  0  0  0  0  0  0  0  0  0  0  0
    6.0423   -6.0047   23.5961 H   0  0  0  0  0  0  0  0  0  0  0  0
  1  2  1  0  0  0  0
  1  3  2  0  0  0  0
  1 17  2  0  0  0  0
  2  4  2  0  0  0  0
  2 10  1  0  0  0  0
  4  7  1  0  0  0  0
  5  6  1  0  0  0  0
  5 16  1  0  0  0  0
  5 18  2  0  0  0  0
  7  8  2  0  0  0  0
  8  9  1  0  0  0  0
  9 10  2  0  0  0  0
 10 15  1  0  0  0  0
 11 12  1  0  0  0  0
 11 15  1  0  0  0  0
 12 16  1  0  0  0  0
 13 14  1  0  0  0  0
 13 16  1  0  0  0  0
 14 15  1  0  0  0  0
  4 20  1  0  0  0  0
  6 21  1  0  0  0  0
  6 22  1  0  0  0  0
  7 23  1  0  0  0  0
  8 24  1  0  0  0  0
  9 25  1  0  0  0  0
 11 26  1  0  0  0  0
 11 27  1  0  0  0  0
 12 28  1  0  0  0  0
 12 29  1  0  0  0  0
 13 30  1  0  0  0  0
 13 31  1  0  0  0  0
 14 32  1  0  0  0  0
 14 33  1  0  0  0  0
  6 19  1  0  0  0  0
M  RGP  1  19   1
M  END
$$$$
