LIG(A-1101)
  -OEChem-04032019403D

 35 36  0     1  0  0  0  0  0999 V2000
   10.7320   -4.4920   25.7770 C   0  0  0  0  0  0  0  0  0  0  0  0
    9.6260   -4.5180   24.7860 C   0  0  0  0  0  0  0  0  0  0  0  0
    8.9370   -5.6900   24.5520 C   0  0  0  0  0  0  0  0  0  0  0  0
    7.9130   -5.7480   23.6320 C   0  0  0  0  0  0  0  0  0  0  0  0
    7.5610   -4.6030   22.9230 C   0  0  0  0  0  0  0  0  0  0  0  0
    6.7140   -4.3530   20.6700 C   0  0  0  0  0  0  0  0  0  0  0  0
    8.0050   -3.6310   20.3570 C   0  0  0  0  0  0  0  0  0  0  0  0
    5.1700   -5.0530   22.4600 C   0  0  2  0  0  0  0  0  0  0  0  0
    4.9760   -4.5580   23.8880 C   0  0  0  0  0  0  0  0  0  0  0  0
    4.3500   -5.4030   24.6980 C   0  0  0  0  0  0  0  0  0  0  0  0
    5.0010   -6.5780   22.4800 C   0  0  0  0  0  0  0  0  0  0  0  0
    8.2400   -3.4080   23.1550 C   0  0  0  0  0  0  0  0  0  0  0  0
    9.2720   -3.3840   24.0720 C   0  0  0  0  0  0  0  0  0  0  0  0
    6.4880   -4.6590   21.9790 N   0  0  0  0  0  0  0  0  0  0  0  0
    5.9080   -4.6340   19.7950 O   0  0  0  0  0  0  0  0  0  0  0  0
    2.6000   -6.9740   23.5270 O   0  0  0  0  0  0  0  0  0  0  0  0
    4.5160   -8.0110   24.6710 O   0  0  0  0  0  0  0  0  0  0  0  0
    3.9870   -6.9150   23.9050 S   0  0  0  0  0  0  0  0  0  0  0  0
    8.2770   -3.3290   18.5900 R#  0  0  0  0  0  0  0  0  0  0  0  0
   10.8532   -5.4923   26.2183 H   0  0  0  0  0  0  0  0  0  0  0  0
   11.6659   -4.1967   25.2764 H   0  0  0  0  0  0  0  0  0  0  0  0
   10.4963   -3.7674   26.5704 H   0  0  0  0  0  0  0  0  0  0  0  0
    9.2058   -6.5803   25.1012 H   0  0  0  0  0  0  0  0  0  0  0  0
    7.3869   -6.6758   23.4621 H   0  0  0  0  0  0  0  0  0  0  0  0
    7.9921   -2.6607   20.8750 H   0  0  0  0  0  0  0  0  0  0  0  0
    8.8405   -4.2379   20.7360 H   0  0  0  0  0  0  0  0  0  0  0  0
    4.3901   -4.6160   21.8191 H   0  0  0  0  0  0  0  0  0  0  0  0
    5.9686   -4.3500   24.3141 H   0  0  0  0  0  0  0  0  0  0  0  0
    4.3912   -3.6271   23.8492 H   0  0  0  0  0  0  0  0  0  0  0  0
    4.9919   -5.6030   25.5686 H   0  0  0  0  0  0  0  0  0  0  0  0
    3.4092   -4.9427   25.0342 H   0  0  0  0  0  0  0  0  0  0  0  0
    4.5034   -6.9233   21.5618 H   0  0  0  0  0  0  0  0  0  0  0  0
    5.9784   -7.0735   22.5759 H   0  0  0  0  0  0  0  0  0  0  0  0
    7.9618   -2.5102   22.6230 H   0  0  0  0  0  0  0  0  0  0  0  0
    9.8136   -2.4642   24.2360 H   0  0  0  0  0  0  0  0  0  0  0  0
  1  2  1  0  0  0  0
  2  3  2  0  0  0  0
  2 13  1  0  0  0  0
  3  4  1  0  0  0  0
  4  5  2  0  0  0  0
  5 12  1  0  0  0  0
  5 14  1  0  0  0  0
  6  7  1  0  0  0  0
  6 14  1  0  0  0  0
  6 15  2  0  0  0  0
  8  9  1  0  0  0  0
  8 11  1  0  0  0  0
  8 14  1  0  0  0  0
  9 10  1  0  0  0  0
 10 18  1  0  0  0  0
 11 18  1  0  0  0  0
 12 13  2  0  0  0  0
 16 18  2  0  0  0  0
 17 18  2  0  0  0  0
  1 20  1  0  0  0  0
  1 21  1  0  0  0  0
  1 22  1  0  0  0  0
  3 23  1  0  0  0  0
  4 24  1  0  0  0  0
  7 25  1  0  0  0  0
  7 26  1  0  0  0  0
  8 27  1  0  0  0  0
  9 28  1  0  0  0  0
  9 29  1  0  0  0  0
 10 30  1  0  0  0  0
 10 31  1  0  0  0  0
 11 32  1  0  0  0  0
 11 33  1  0  0  0  0
 12 34  1  0  0  0  0
 13 35  1  0  0  0  0
  7 19  1  0  0  0  0
M  RGP  1  19   1
M  END
$$$$
