LIG(A-1101)
  -OEChem-04292023453D

 28 29  0     0  0  0  0  0  0999 V2000
   10.8870  -25.7840    3.2130 C   0  0  0  0  0  0  0  0  0  0  0  0
   12.0240  -25.0000    3.2940 C   0  0  0  0  0  0  0  0  0  0  0  0
   12.3100  -24.0780    2.2910 C   0  0  0  0  0  0  0  0  0  0  0  0
   11.4540  -23.9360    1.2220 C   0  0  0  0  0  0  0  0  0  0  0  0
   10.3050  -24.7240    1.1490 C   0  0  0  0  0  0  0  0  0  0  0  0
    9.3260  -24.6010   -0.0620 C   0  0  0  0  0  0  0  0  0  0  0  0
    7.9280  -23.2130   -1.3450 C   0  0  0  0  0  0  0  0  0  0  0  0
    7.1150  -21.9110   -1.3720 C   0  0  0  0  0  0  0  0  0  0  0  0
    7.4680  -20.7180   -1.9990 C   0  0  0  0  0  0  0  0  0  0  0  0
    6.4430  -19.8110   -1.7710 C   0  0  0  0  0  0  0  0  0  0  0  0
    5.4560  -20.4840   -0.9940 C   0  0  0  0  0  0  0  0  0  0  0  0
   10.0250  -25.6480    2.1420 C   0  0  0  0  0  0  0  0  0  0  0  0
   10.5920  -26.6830    4.1750 F   0  0  0  0  0  0  0  0  0  0  0  0
    8.8570  -23.2170   -0.2810 N   0  3  0  0  0  0  0  0  0  0  0  0
    5.8860  -21.7230   -0.7860 O   0  0  0  0  0  0  0  0  0  0  0  0
   12.6910  -25.1035    4.1371 H   0  0  0  0  0  0  0  0  0  0  0  0
   13.2033  -23.4741    2.3514 H   0  0  0  0  0  0  0  0  0  0  0  0
   11.6708  -23.2186    0.4443 H   0  0  0  0  0  0  0  0  0  0  0  0
    9.8446  -24.9441   -0.9694 H   0  0  0  0  0  0  0  0  0  0  0  0
    8.4524  -25.2425    0.1258 H   0  0  0  0  0  0  0  0  0  0  0  0
    7.2399  -24.0624   -1.2228 H   0  0  0  0  0  0  0  0  0  0  0  0
    8.4718  -23.3154   -2.2957 H   0  0  0  0  0  0  0  0  0  0  0  0
    8.3727  -20.5332   -2.5592 H   0  0  0  0  0  0  0  0  0  0  0  0
    6.4011  -18.7887   -2.1168 H   0  0  0  0  0  0  0  0  0  0  0  0
    4.5271  -20.0629   -0.6389 H   0  0  0  0  0  0  0  0  0  0  0  0
    9.1369  -26.2594    2.0794 H   0  0  0  0  0  0  0  0  0  0  0  0
    9.6342  -22.6315   -0.5115 H   0  0  0  0  0  0  0  0  0  0  0  0
    8.4175  -22.8758    0.5499 H   0  0  0  0  0  0  0  0  0  0  0  0
  1  2  2  0  0  0  0
  1 12  1  0  0  0  0
  1 13  1  0  0  0  0
  2  3  1  0  0  0  0
  3  4  2  0  0  0  0
  4  5  1  0  0  0  0
  5  6  1  0  0  0  0
  5 12  2  0  0  0  0
  6 14  1  0  0  0  0
  7  8  1  0  0  0  0
  7 14  1  0  0  0  0
  8  9  2  0  0  0  0
  8 15  1  0  0  0  0
  9 10  1  0  0  0  0
 10 11  2  0  0  0  0
 11 15  1  0  0  0  0
  2 16  1  0  0  0  0
  3 17  1  0  0  0  0
  4 18  1  0  0  0  0
  6 19  1  0  0  0  0
  6 20  1  0  0  0  0
  7 21  1  0  0  0  0
  7 22  1  0  0  0  0
  9 23  1  0  0  0  0
 10 24  1  0  0  0  0
 11 25  1  0  0  0  0
 12 26  1  0  0  0  0
 14 27  1  0  0  0  0
 14 28  1  0  0  0  0
M  CHG  1  14   1
M  END
$$$$
