LIG(A-701)
  -OEChem-03292022143D

 33 34  0     0  0  0  0  0  0999 V2000
   26.0480  -10.4060    4.0020 C   0  0  0  0  0  0  0  0  0  0  0  0
   26.4090  -10.3360    5.4920 C   0  0  0  0  0  0  0  0  0  0  0  0
   27.9260  -10.8440    7.0900 C   0  0  0  0  0  0  0  0  0  0  0  0
   27.7230  -11.8360    8.2230 C   0  0  0  0  0  0  0  0  0  0  0  0
   27.0260  -13.4420    6.7580 C   0  0  0  0  0  0  0  0  0  0  0  0
   27.1210  -12.5040    5.5600 C   0  0  0  0  0  0  0  0  0  0  0  0
   23.3920   -9.4930    4.6150 C   0  0  0  0  0  0  0  0  0  0  0  0
   23.6710   -8.1980    4.2200 C   0  0  0  0  0  0  0  0  0  0  0  0
   23.0050   -7.1460    4.8050 C   0  0  0  0  0  0  0  0  0  0  0  0
   22.0570   -7.3700    5.7910 C   0  0  0  0  0  0  0  0  0  0  0  0
   21.7840   -8.6650    6.1880 C   0  0  0  0  0  0  0  0  0  0  0  0
   22.4560   -9.7320    5.6020 C   0  0  0  0  0  0  0  0  0  0  0  0
   27.3220  -11.1550    5.8680 N   0  3  0  0  0  0  0  0  0  0  0  0
   27.9070  -13.1200    7.7790 O   0  0  0  0  0  0  0  0  0  0  0  0
   24.2930  -10.8550    3.8410 S   0  0  0  0  0  0  0  0  0  0  0  0
   26.2229   -9.4263    3.5333 H   0  0  0  0  0  0  0  0  0  0  0  0
   26.6704  -11.1658    3.5067 H   0  0  0  0  0  0  0  0  0  0  0  0
   26.7549   -9.3152    5.7116 H   0  0  0  0  0  0  0  0  0  0  0  0
   25.4998  -10.5482    6.0737 H   0  0  0  0  0  0  0  0  0  0  0  0
   27.5280   -9.8735    7.4212 H   0  0  0  0  0  0  0  0  0  0  0  0
   29.0082  -10.7557    6.9141 H   0  0  0  0  0  0  0  0  0  0  0  0
   28.4465  -11.6232    9.0238 H   0  0  0  0  0  0  0  0  0  0  0  0
   26.7007  -11.7322    8.6155 H   0  0  0  0  0  0  0  0  0  0  0  0
   26.0010  -13.3985    7.1549 H   0  0  0  0  0  0  0  0  0  0  0  0
   27.2445  -14.4652    6.4183 H   0  0  0  0  0  0  0  0  0  0  0  0
   27.9614  -12.8378    4.9337 H   0  0  0  0  0  0  0  0  0  0  0  0
   26.1838  -12.5858    4.9900 H   0  0  0  0  0  0  0  0  0  0  0  0
   24.4097   -8.0127    3.4543 H   0  0  0  0  0  0  0  0  0  0  0  0
   23.2230   -6.1354    4.4928 H   0  0  0  0  0  0  0  0  0  0  0  0
   21.5364   -6.5398    6.2449 H   0  0  0  0  0  0  0  0  0  0  0  0
   21.0467   -8.8490    6.9555 H   0  0  0  0  0  0  0  0  0  0  0  0
   22.2468  -10.7435    5.9174 H   0  0  0  0  0  0  0  0  0  0  0  0
   28.0634  -10.9314    5.2353 H   0  0  0  0  0  0  0  0  0  0  0  0
  1  2  1  0  0  0  0
  1 15  1  0  0  0  0
  2 13  1  0  0  0  0
  3  4  1  0  0  0  0
  3 13  1  0  0  0  0
  4 14  1  0  0  0  0
  5  6  1  0  0  0  0
  5 14  1  0  0  0  0
  6 13  1  0  0  0  0
  7  8  2  0  0  0  0
  7 12  1  0  0  0  0
  7 15  1  0  0  0  0
  8  9  1  0  0  0  0
  9 10  2  0  0  0  0
 10 11  1  0  0  0  0
 11 12  2  0  0  0  0
  1 16  1  0  0  0  0
  1 17  1  0  0  0  0
  2 18  1  0  0  0  0
  2 19  1  0  0  0  0
  3 20  1  0  0  0  0
  3 21  1  0  0  0  0
  4 22  1  0  0  0  0
  4 23  1  0  0  0  0
  5 24  1  0  0  0  0
  5 25  1  0  0  0  0
  6 26  1  0  0  0  0
  6 27  1  0  0  0  0
  8 28  1  0  0  0  0
  9 29  1  0  0  0  0
 10 30  1  0  0  0  0
 11 31  1  0  0  0  0
 12 32  1  0  0  0  0
 13 33  1  0  0  0  0
M  CHG  1  13   1
M  END
$$$$
