LIG(A-1101)
  -OEChem-03272012203D

 30 32  0     1  0  0  0  0  0999 V2000
    2.2660  -24.9490    0.8600 C   0  0  0  0  0  0  0  0  0  0  0  0
    2.0380  -23.5860    0.7280 C   0  0  0  0  0  0  0  0  0  0  0  0
    4.1440  -23.3370   -0.1750 C   0  0  0  0  0  0  0  0  0  0  0  0
    6.4330  -22.8710   -1.1390 C   0  0  0  0  0  0  0  0  0  0  0  0
    7.2850  -21.5600   -1.3400 C   0  0  0  0  0  0  0  0  0  0  0  0
    6.1880  -20.4690   -1.6130 C   0  0  1  0  0  0  0  0  0  0  0  0
    6.7090  -19.0540   -1.3430 C   0  0  0  0  0  0  0  0  0  0  0  0
    7.3550  -18.7200   -2.4970 C   0  0  0  0  0  0  0  0  0  0  0  0
    5.7760  -20.4110   -3.1660 C   0  0  0  0  0  0  0  0  0  0  0  0
    5.1580  -20.8150   -0.8110 C   0  0  0  0  0  0  0  0  0  0  0  0
    4.3760  -24.7140   -0.0460 C   0  0  0  0  0  0  0  0  0  0  0  0
    2.9930  -22.7980    0.2110 N   0  0  0  0  0  0  0  0  0  0  0  0
    5.2110  -22.4640   -0.7510 N   0  0  0  0  0  0  0  0  0  0  0  0
    3.4300  -25.4860    0.4770 N   0  0  0  0  0  0  0  0  0  0  0  0
    6.6850  -19.6230   -3.7070 O   0  0  0  0  0  0  0  0  0  0  0  0
    1.4962  -25.5821    1.2759 H   0  0  0  0  0  0  0  0  0  0  0  0
    1.0953  -23.1614    1.0403 H   0  0  0  0  0  0  0  0  0  0  0  0
    6.3670  -23.4322   -2.0828 H   0  0  0  0  0  0  0  0  0  0  0  0
    6.8874  -23.5071   -0.3651 H   0  0  0  0  0  0  0  0  0  0  0  0
    7.8642  -21.3216   -0.4358 H   0  0  0  0  0  0  0  0  0  0  0  0
    7.9673  -21.6587   -2.1971 H   0  0  0  0  0  0  0  0  0  0  0  0
    5.8777  -18.3615   -1.1446 H   0  0  0  0  0  0  0  0  0  0  0  0
    7.4029  -19.0480   -0.4895 H   0  0  0  0  0  0  0  0  0  0  0  0
    7.2217  -17.6486   -2.7076 H   0  0  0  0  0  0  0  0  0  0  0  0
    8.4279  -18.9454   -2.4077 H   0  0  0  0  0  0  0  0  0  0  0  0
    5.8090  -21.4137   -3.6172 H   0  0  0  0  0  0  0  0  0  0  0  0
    4.7683  -19.9871   -3.2878 H   0  0  0  0  0  0  0  0  0  0  0  0
    5.2871  -20.3857    0.1935 H   0  0  0  0  0  0  0  0  0  0  0  0
    4.2030  -20.4726   -1.2362 H   0  0  0  0  0  0  0  0  0  0  0  0
    5.3136  -25.1421   -0.3684 H   0  0  0  0  0  0  0  0  0  0  0  0
  1  2  2  0  0  0  0
  1 14  1  0  0  0  0
  2 12  1  0  0  0  0
  3 11  1  0  0  0  0
  3 12  2  0  0  0  0
  3 13  1  0  0  0  0
  4  5  1  0  0  0  0
  4 13  1  0  0  0  0
  5  6  1  0  0  0  0
  6  7  1  0  0  0  0
  6  9  1  0  0  0  0
  6 10  1  0  0  0  0
  7  8  1  0  0  0  0
  8 15  1  0  0  0  0
  9 15  1  0  0  0  0
 10 13  1  0  0  0  0
 11 14  2  0  0  0  0
  1 16  1  0  0  0  0
  2 17  1  0  0  0  0
  4 18  1  0  0  0  0
  4 19  1  0  0  0  0
  5 20  1  0  0  0  0
  5 21  1  0  0  0  0
  7 22  1  0  0  0  0
  7 23  1  0  0  0  0
  8 24  1  0  0  0  0
  8 25  1  0  0  0  0
  9 26  1  0  0  0  0
  9 27  1  0  0  0  0
 10 28  1  0  0  0  0
 10 29  1  0  0  0  0
 11 30  1  0  0  0  0
M  END
$$$$
