LIG(A-1101)
  -OEChem-03292022503D

 26 27  0     1  0  0  0  0  0999 V2000
    9.6720    1.8000   22.1790 C   0  0  0  0  0  0  0  0  0  0  0  0
    9.2940    1.1390   23.5470 C   0  0  1  0  0  0  0  0  0  0  0  0
    7.9700    1.0510   23.7080 C   0  0  0  0  0  0  0  0  0  0  0  0
    7.5690   -0.4550   23.2930 C   0  0  0  0  0  0  0  0  0  0  0  0
    8.9320   -1.1540   22.9450 C   0  0  0  0  0  0  0  0  0  0  0  0
    9.8620   -0.4260   23.6200 C   0  0  1  0  0  0  0  0  0  0  0  0
   11.2840   -0.5170   23.0130 C   0  0  0  0  0  0  0  0  0  0  0  0
   12.2970    0.4000   23.3860 C   0  0  0  0  0  0  0  0  0  0  0  0
   13.5470    0.1850   22.7540 C   0  0  0  0  0  0  0  0  0  0  0  0
   11.6510   -1.5120   22.0850 C   0  0  0  0  0  0  0  0  0  0  0  0
   10.4680    3.0350   22.1810 N   0  0  0  0  0  0  0  0  0  0  0  0
    9.3290    1.3030   21.1260 O   0  0  0  0  0  0  0  0  0  0  0  0
   13.3390   -1.2060   21.7110 S   0  0  0  0  0  0  0  0  0  0  0  0
    9.7739    1.7054   24.3587 H   0  0  0  0  0  0  0  0  0  0  0  0
    7.6992    1.2431   24.7567 H   0  0  0  0  0  0  0  0  0  0  0  0
    7.4573    1.7755   23.0583 H   0  0  0  0  0  0  0  0  0  0  0  0
    7.0733   -0.9683   24.1302 H   0  0  0  0  0  0  0  0  0  0  0  0
    6.9017   -0.4509   22.4186 H   0  0  0  0  0  0  0  0  0  0  0  0
    8.9324   -2.1998   23.2860 H   0  0  0  0  0  0  0  0  0  0  0  0
    9.1218   -1.1214   21.8620 H   0  0  0  0  0  0  0  0  0  0  0  0
    9.9088   -0.7120   24.6811 H   0  0  0  0  0  0  0  0  0  0  0  0
   12.1303    1.1980   24.0944 H   0  0  0  0  0  0  0  0  0  0  0  0
   14.4487    0.7640   22.8888 H   0  0  0  0  0  0  0  0  0  0  0  0
   11.0255   -2.2976   21.6874 H   0  0  0  0  0  0  0  0  0  0  0  0
   10.7263    3.4648   21.3158 H   0  0  0  0  0  0  0  0  0  0  0  0
   10.7514    3.4458   23.0476 H   0  0  0  0  0  0  0  0  0  0  0  0
  1  2  1  0  0  0  0
  1 11  1  0  0  0  0
  1 12  2  0  0  0  0
  2  3  1  0  0  0  0
  2  6  1  0  0  0  0
  3  4  1  0  0  0  0
  4  5  1  0  0  0  0
  5  6  1  0  0  0  0
  6  7  1  0  0  0  0
  7  8  1  0  0  0  0
  7 10  2  0  0  0  0
  8  9  2  0  0  0  0
  9 13  1  0  0  0  0
 10 13  1  0  0  0  0
  2 14  1  0  0  0  0
  3 15  1  0  0  0  0
  3 16  1  0  0  0  0
  4 17  1  0  0  0  0
  4 18  1  0  0  0  0
  5 19  1  0  0  0  0
  5 20  1  0  0  0  0
  6 21  1  0  0  0  0
  8 22  1  0  0  0  0
  9 23  1  0  0  0  0
 10 24  1  0  0  0  0
 11 25  1  0  0  0  0
 11 26  1  0  0  0  0
M  END
$$$$
