LIG(A-1101)
  -OEChem-03292022213D

 40 41  0     0  0  0  0  0  0999 V2000
    5.8360   -5.3040   24.3480 N   0  0  0  0  0  0  0  0  0  0  0  0
    0.7820   -1.4490   26.1340 C   0  0  0  0  0  0  0  0  0  0  0  0
    4.7890   -6.8340   25.9830 O   0  0  0  0  0  0  0  0  0  0  0  0
    1.8750   -2.4660   26.0680 C   0  0  0  0  0  0  0  0  0  0  0  0
    5.1940   -5.1710   22.0640 C   0  0  0  0  0  0  0  0  0  0  0  0
    5.2440   -6.0810   23.2580 C   0  0  0  0  0  0  0  0  0  0  0  0
    6.8310   -4.3320   20.4750 C   0  0  0  0  0  0  0  0  0  0  0  0
    8.0960   -3.5620   20.2020 C   0  0  0  0  0  0  0  0  0  0  0  0
    3.1780   -2.1230   26.3510 C   0  0  0  0  0  0  0  0  0  0  0  0
    4.1910   -3.0520   26.2930 C   0  0  0  0  0  0  0  0  0  0  0  0
    3.9100   -4.3730   25.9650 C   0  0  0  0  0  0  0  0  0  0  0  0
    2.5940   -4.7580   25.6460 C   0  0  0  0  0  0  0  0  0  0  0  0
    2.1530   -6.1420   25.2540 C   0  0  0  0  0  0  0  0  0  0  0  0
    1.6080   -3.7780   25.7220 C   0  0  0  0  0  0  0  0  0  0  0  0
    7.2490   -5.0210   24.0830 C   0  0  0  0  0  0  0  0  0  0  0  0
    7.2790   -4.0680   22.9180 C   0  0  0  0  0  0  0  0  0  0  0  0
    6.4930   -4.5460   21.7670 N   0  0  0  0  0  0  0  0  0  0  0  0
    6.2920   -5.0250   26.7620 O   0  0  0  0  0  0  0  0  0  0  0  0
    6.1280   -4.7060   19.5450 O   0  0  0  0  0  0  0  0  0  0  0  0
    5.2740   -5.4940   25.8740 S   0  0  0  0  0  0  0  0  0  0  0  0
    8.4950   -3.4500   18.4330 R#  0  0  0  0  0  0  0  0  0  0  0  0
    1.2032   -0.4757   26.4260 H   0  0  0  0  0  0  0  0  0  0  0  0
    0.3038   -1.3603   25.1474 H   0  0  0  0  0  0  0  0  0  0  0  0
    0.0340   -1.7625   26.8771 H   0  0  0  0  0  0  0  0  0  0  0  0
    4.8780   -5.7573   21.1886 H   0  0  0  0  0  0  0  0  0  0  0  0
    4.4583   -4.3767   22.2584 H   0  0  0  0  0  0  0  0  0  0  0  0
    4.2292   -6.4063   23.5307 H   0  0  0  0  0  0  0  0  0  0  0  0
    5.8649   -6.9621   23.0386 H   0  0  0  0  0  0  0  0  0  0  0  0
    7.9782   -2.5431   20.5994 H   0  0  0  0  0  0  0  0  0  0  0  0
    8.9287   -4.0627   20.7176 H   0  0  0  0  0  0  0  0  0  0  0  0
    3.4095   -1.1041   26.6240 H   0  0  0  0  0  0  0  0  0  0  0  0
    5.2076   -2.7539   26.5030 H   0  0  0  0  0  0  0  0  0  0  0  0
    2.3814   -6.8447   26.0689 H   0  0  0  0  0  0  0  0  0  0  0  0
    1.0696   -6.1413   25.0635 H   0  0  0  0  0  0  0  0  0  0  0  0
    2.6854   -6.4520   24.3427 H   0  0  0  0  0  0  0  0  0  0  0  0
    0.5879   -4.0551   25.5006 H   0  0  0  0  0  0  0  0  0  0  0  0
    7.7166   -4.5589   24.9649 H   0  0  0  0  0  0  0  0  0  0  0  0
    7.7821   -5.9492   23.8294 H   0  0  0  0  0  0  0  0  0  0  0  0
    6.8701   -3.1006   23.2450 H   0  0  0  0  0  0  0  0  0  0  0  0
    8.3235   -3.9357   22.5993 H   0  0  0  0  0  0  0  0  0  0  0  0
  1  6  1  0  0  0  0
  1 15  1  0  0  0  0
  1 20  1  0  0  0  0
  2  4  1  0  0  0  0
  3 20  2  0  0  0  0
  4  9  2  0  0  0  0
  4 14  1  0  0  0  0
  5  6  1  0  0  0  0
  5 17  1  0  0  0  0
  7  8  1  0  0  0  0
  7 17  1  0  0  0  0
  7 19  2  0  0  0  0
  9 10  1  0  0  0  0
 10 11  2  0  0  0  0
 11 12  1  0  0  0  0
 11 20  1  0  0  0  0
 12 13  1  0  0  0  0
 12 14  2  0  0  0  0
 15 16  1  0  0  0  0
 16 17  1  0  0  0  0
 18 20  2  0  0  0  0
  2 22  1  0  0  0  0
  2 23  1  0  0  0  0
  2 24  1  0  0  0  0
  5 25  1  0  0  0  0
  5 26  1  0  0  0  0
  6 27  1  0  0  0  0
  6 28  1  0  0  0  0
  8 29  1  0  0  0  0
  8 30  1  0  0  0  0
  9 31  1  0  0  0  0
 10 32  1  0  0  0  0
 13 33  1  0  0  0  0
 13 34  1  0  0  0  0
 13 35  1  0  0  0  0
 14 36  1  0  0  0  0
 15 37  1  0  0  0  0
 15 38  1  0  0  0  0
 16 39  1  0  0  0  0
 16 40  1  0  0  0  0
  8 21  1  0  0  0  0
M  RGP  1  21   1
M  END
$$$$
