LIG(A-1301)
  -OEChem-03272012003D

 26 26  0     0  0  0  0  0  0999 V2000
    6.2200   -5.1690   24.2210 N   0  0  0  0  0  0  0  0  0  0  0  0
    4.9120   -6.1750   26.0210 C   0  0  0  0  0  0  0  0  0  0  0  0
    7.2040   -5.6080   26.1870 O   0  0  0  0  0  0  0  0  0  0  0  0
    6.1980   -5.6280   25.4870 C   0  0  0  0  0  0  0  0  0  0  0  0
    5.2500   -5.5480   23.1880 C   0  0  0  0  0  0  0  0  0  0  0  0
    5.9470   -5.9830   21.9160 C   0  0  0  0  0  0  0  0  0  0  0  0
    7.8800   -4.6470   22.5140 C   0  0  0  0  0  0  0  0  0  0  0  0
    7.1900   -4.1740   23.7700 C   0  0  0  0  0  0  0  0  0  0  0  0
    6.9160   -4.3030   20.3080 C   0  0  0  0  0  0  0  0  0  0  0  0
    8.2160   -3.6150   20.0030 C   0  0  0  0  0  0  0  0  0  0  0  0
    6.8880   -4.9550   21.4860 N   0  0  0  0  0  0  0  0  0  0  0  0
    5.9720   -4.2680   19.5310 O   0  0  0  0  0  0  0  0  0  0  0  0
    8.5300   -3.3110   18.2590 R#  0  0  0  0  0  0  0  0  0  0  0  0
    5.0590   -6.5130   27.0574 H   0  0  0  0  0  0  0  0  0  0  0  0
    4.1418   -5.3900   25.9972 H   0  0  0  0  0  0  0  0  0  0  0  0
    4.5893   -7.0242   25.4008 H   0  0  0  0  0  0  0  0  0  0  0  0
    4.6339   -6.3791   23.5618 H   0  0  0  0  0  0  0  0  0  0  0  0
    4.6055   -4.6845   22.9668 H   0  0  0  0  0  0  0  0  0  0  0  0
    6.4915   -6.9206   22.1014 H   0  0  0  0  0  0  0  0  0  0  0  0
    5.1977   -6.1440   21.1269 H   0  0  0  0  0  0  0  0  0  0  0  0
    8.5516   -3.8567   22.1474 H   0  0  0  0  0  0  0  0  0  0  0  0
    8.4654   -5.5509   22.7381 H   0  0  0  0  0  0  0  0  0  0  0  0
    7.9404   -4.0153   24.5585 H   0  0  0  0  0  0  0  0  0  0  0  0
    6.6694   -3.2273   23.5635 H   0  0  0  0  0  0  0  0  0  0  0  0
    8.2184   -2.6458   20.5233 H   0  0  0  0  0  0  0  0  0  0  0  0
    9.0322   -4.2418   20.3916 H   0  0  0  0  0  0  0  0  0  0  0  0
  1  4  1  0  0  0  0
  1  5  1  0  0  0  0
  1  8  1  0  0  0  0
  2  4  1  0  0  0  0
  3  4  2  0  0  0  0
  5  6  1  0  0  0  0
  6 11  1  0  0  0  0
  7  8  1  0  0  0  0
  7 11  1  0  0  0  0
  9 10  1  0  0  0  0
  9 11  1  0  0  0  0
  9 12  2  0  0  0  0
  2 14  1  0  0  0  0
  2 15  1  0  0  0  0
  2 16  1  0  0  0  0
  5 17  1  0  0  0  0
  5 18  1  0  0  0  0
  6 19  1  0  0  0  0
  6 20  1  0  0  0  0
  7 21  1  0  0  0  0
  7 22  1  0  0  0  0
  8 23  1  0  0  0  0
  8 24  1  0  0  0  0
 10 25  1  0  0  0  0
 10 26  1  0  0  0  0
 10 13  1  0  0  0  0
M  RGP  1  13   1
M  END
$$$$
