LIG(A-1101)
  -OEChem-03272012263D

 30 31  0     0  0  0  0  0  0999 V2000
    6.9860   -2.9550   21.0940 N   0  0  0  0  0  0  0  0  0  0  0  0
    7.4600   -2.5680   18.6840 C   0  0  0  0  0  0  0  0  0  0  0  0
    5.9090   -4.1560   19.5440 O   0  0  0  0  0  0  0  0  0  0  0  0
    6.7340   -3.2890   19.8100 C   0  0  0  0  0  0  0  0  0  0  0  0
    9.2900    0.5050   26.2540 C   0  0  0  0  0  0  0  0  0  0  0  0
    6.3290   -3.6870   22.1820 C   0  0  0  0  0  0  0  0  0  0  0  0
    7.3030   -4.0410   23.2840 C   0  0  0  0  0  0  0  0  0  0  0  0
    8.7060   -2.1720   22.7110 C   0  0  0  0  0  0  0  0  0  0  0  0
    7.8020   -1.8180   21.5450 C   0  0  0  0  0  0  0  0  0  0  0  0
    7.3890   -2.1230   24.8040 C   0  0  0  0  0  0  0  0  0  0  0  0
    8.2330   -1.3250   25.6610 C   0  0  0  0  0  0  0  0  0  0  0  0
    8.8630   -1.6100   26.8220 C   0  0  0  0  0  0  0  0  0  0  0  0
    9.5520   -0.4400   27.2190 C   0  0  0  0  0  0  0  0  0  0  0  0
    7.9400   -2.8200   23.7780 N   0  0  0  0  0  0  0  0  0  0  0  0
    6.1880   -2.1950   25.0540 O   0  0  0  0  0  0  0  0  0  0  0  0
    8.4790   -0.0270   25.2990 O   0  0  0  0  0  0  0  0  0  0  0  0
    9.0380   -3.3610   18.2690 R#  0  0  0  0  0  0  0  0  0  0  0  0
    6.8177   -2.5680   17.7910 H   0  0  0  0  0  0  0  0  0  0  0  0
    7.6554   -1.5312   18.9951 H   0  0  0  0  0  0  0  0  0  0  0  0
    9.6702    1.5159   26.2542 H   0  0  0  0  0  0  0  0  0  0  0  0
    5.5283   -3.0600   22.6013 H   0  0  0  0  0  0  0  0  0  0  0  0
    5.8955   -4.6136   21.7778 H   0  0  0  0  0  0  0  0  0  0  0  0
    6.7636   -4.5327   24.1070 H   0  0  0  0  0  0  0  0  0  0  0  0
    8.0713   -4.7226   22.8902 H   0  0  0  0  0  0  0  0  0  0  0  0
    9.4930   -2.8574   22.3633 H   0  0  0  0  0  0  0  0  0  0  0  0
    9.1668   -1.2534   23.1032 H   0  0  0  0  0  0  0  0  0  0  0  0
    8.4268   -1.4784   20.7058 H   0  0  0  0  0  0  0  0  0  0  0  0
    7.1304   -1.0039   21.8550 H   0  0  0  0  0  0  0  0  0  0  0  0
    8.8441   -2.5532   27.3477 H   0  0  0  0  0  0  0  0  0  0  0  0
   10.1611   -0.3140   28.1019 H   0  0  0  0  0  0  0  0  0  0  0  0
  1  4  1  0  0  0  0
  1  6  1  0  0  0  0
  1  9  1  0  0  0  0
  2  4  1  0  0  0  0
  3  4  2  0  0  0  0
  5 13  2  0  0  0  0
  5 16  1  0  0  0  0
  6  7  1  0  0  0  0
  7 14  1  0  0  0  0
  8  9  1  0  0  0  0
  8 14  1  0  0  0  0
 10 11  1  0  0  0  0
 10 14  1  0  0  0  0
 10 15  2  0  0  0  0
 11 12  2  0  0  0  0
 11 16  1  0  0  0  0
 12 13  1  0  0  0  0
  2 18  1  0  0  0  0
  2 19  1  0  0  0  0
  5 20  1  0  0  0  0
  6 21  1  0  0  0  0
  6 22  1  0  0  0  0
  7 23  1  0  0  0  0
  7 24  1  0  0  0  0
  8 25  1  0  0  0  0
  8 26  1  0  0  0  0
  9 27  1  0  0  0  0
  9 28  1  0  0  0  0
 12 29  1  0  0  0  0
 13 30  1  0  0  0  0
  2 17  1  0  0  0  0
M  RGP  1  17   1
M  END
$$$$
