LIG(A-1101)
  -OEChem-03272010463D

 32 31  0     1  0  0  0  0  0999 V2000
    2.1650   -8.0610   24.6500 C   0  0  0  0  0  0  0  0  0  0  0  0
    3.2890   -7.0590   24.4950 C   0  0  2  0  0  0  0  0  0  0  0  0
    3.2780   -6.3420   23.1300 C   0  0  2  0  0  0  0  0  0  0  0  0
    0.9670   -5.8410   22.4420 C   0  0  0  0  0  0  0  0  0  0  0  0
   -0.1750   -4.8790   22.5500 C   0  0  0  0  0  0  0  0  0  0  0  0
    4.5350   -5.4950   22.9010 C   0  0  0  0  0  0  0  0  0  0  0  0
    6.7640   -5.3030   21.8730 C   0  0  0  0  0  0  0  0  0  0  0  0
    6.8720   -4.8540   20.4580 C   0  0  3  0  0  0  0  0  0  0  0  0
    6.0530   -5.3240   19.5760 C   0  0  0  0  0  0  0  0  0  0  0  0
    2.1060   -5.4820   23.0410 N   0  0  0  0  0  0  0  0  0  0  0  0
    5.5330   -6.0320   22.1850 N   0  0  0  0  0  0  0  0  0  0  0  0
    4.5450   -7.7160   24.6770 O   0  0  0  0  0  0  0  0  0  0  0  0
    0.8580   -6.9000   21.8250 O   0  0  0  0  0  0  0  0  0  0  0  0
    4.5830   -4.3590   23.3660 O   0  0  0  0  0  0  0  0  0  0  0  0
    7.7770   -4.1310   19.3040 R#  0  0  0  0  0  0  0  0  0  0  0  0
    7.7770   -4.1310   19.3040 R#  0  0  0  0  0  0  0  0  0  0  0  0
    2.2296   -8.5350   25.6405 H   0  0  0  0  0  0  0  0  0  0  0  0
    1.1982   -7.5453   24.5528 H   0  0  0  0  0  0  0  0  0  0  0  0
    2.2500   -8.8309   23.8690 H   0  0  0  0  0  0  0  0  0  0  0  0
    3.1690   -6.2921   25.2744 H   0  0  0  0  0  0  0  0  0  0  0  0
    3.2284   -7.1068   22.3409 H   0  0  0  0  0  0  0  0  0  0  0  0
   -1.0464   -5.2817   22.0128 H   0  0  0  0  0  0  0  0  0  0  0  0
   -0.4327   -4.7334   23.6094 H   0  0  0  0  0  0  0  0  0  0  0  0
    0.1150   -3.9147   22.1073 H   0  0  0  0  0  0  0  0  0  0  0  0
    7.6180   -5.9611   22.0910 H   0  0  0  0  0  0  0  0  0  0  0  0
    6.8110   -4.4147   22.5201 H   0  0  0  0  0  0  0  0  0  0  0  0
    6.2732   -3.9484   20.6351 H   0  0  0  0  0  0  0  0  0  0  0  0
    6.0458   -6.3914   19.3105 H   0  0  0  0  0  0  0  0  0  0  0  0
    5.0420   -4.9086   19.4524 H   0  0  0  0  0  0  0  0  0  0  0  0
    2.1567   -4.5715   23.4514 H   0  0  0  0  0  0  0  0  0  0  0  0
    5.4327   -6.9689   21.8502 H   0  0  0  0  0  0  0  0  0  0  0  0
    5.1870   -7.0910   24.9929 H   0  0  0  0  0  0  0  0  0  0  0  0
  1  2  1  0  0  0  0
  2  3  1  0  0  0  0
  2 12  1  0  0  0  0
  3  6  1  0  0  0  0
  3 10  1  0  0  0  0
  4  5  1  0  0  0  0
  4 10  1  0  0  0  0
  4 13  2  0  0  0  0
  6 11  1  0  0  0  0
  6 14  2  0  0  0  0
  7  8  1  0  0  0  0
  7 11  1  0  0  0  0
  8  9  1  0  0  0  0
  8 15  1  0  0  0  0
  9 16  1  0  0  0  0
  1 17  1  0  0  0  0
  1 18  1  0  0  0  0
  1 19  1  0  0  0  0
  2 20  1  0  0  0  0
  3 21  1  0  0  0  0
  5 22  1  0  0  0  0
  5 23  1  0  0  0  0
  5 24  1  0  0  0  0
  7 25  1  0  0  0  0
  7 26  1  0  0  0  0
  8 27  1  0  0  0  0
  9 28  1  0  0  0  0
  9 29  1  0  0  0  0
 10 30  1  0  0  0  0
 11 31  1  0  0  0  0
 12 32  1  0  0  0  0
M  RGP  2  15   1  16   3
M  END
$$$$
