LIG(A-1301)
  -OEChem-03292022023D

 36 37  0     1  0  0  0  0  0999 V2000
    6.9090   -2.5820   20.7850 N   0  0  0  0  0  0  0  0  0  0  0  0
    7.1730   -2.5460   18.3360 C   0  0  0  0  0  0  0  0  0  0  0  0
    5.8820   -4.1460   19.5490 O   0  0  0  0  0  0  0  0  0  0  0  0
    6.5830   -3.1380   19.6020 C   0  0  0  0  0  0  0  0  0  0  0  0
    6.6460   -3.2360   22.0590 C   0  0  0  0  0  0  0  0  0  0  0  0
    7.6290   -1.3290   20.9900 C   0  0  0  0  0  0  0  0  0  0  0  0
    8.9460   -1.6340   21.6600 C   0  0  0  0  0  0  0  0  0  0  0  0
   10.0550   -2.6800   23.5200 C   0  0  0  0  0  0  0  0  0  0  0  0
   11.0250   -1.5460   23.5600 C   0  0  3  0  0  0  0  0  0  0  0  0
   12.1160   -1.3030   22.7170 C   0  0  0  0  0  0  0  0  0  0  0  0
   12.8060   -0.1250   23.0980 C   0  0  0  0  0  0  0  0  0  0  0  0
   12.1310    0.5950   24.0200 C   0  0  0  0  0  0  0  0  0  0  0  0
    7.9620   -3.5390   22.7340 C   0  0  0  0  0  0  0  0  0  0  0  0
    8.7510   -2.3200   22.9410 N   0  3  0  0  0  0  0  0  0  0  0  0
   10.8980   -0.3170   24.7520 S   0  0  0  0  0  0  0  0  0  0  0  0
    8.8220   -3.2440   18.1000 R#  0  0  0  0  0  0  0  0  0  0  0  0
    6.5357   -2.7976   17.4754 H   0  0  0  0  0  0  0  0  0  0  0  0
    7.2422   -1.4525   18.4337 H   0  0  0  0  0  0  0  0  0  0  0  0
    6.0473   -2.5710   22.6988 H   0  0  0  0  0  0  0  0  0  0  0  0
    6.0952   -4.1724   21.8866 H   0  0  0  0  0  0  0  0  0  0  0  0
    7.8106   -0.8431   20.0200 H   0  0  0  0  0  0  0  0  0  0  0  0
    7.0341   -0.6602   21.6295 H   0  0  0  0  0  0  0  0  0  0  0  0
    9.5436   -2.2773   20.9974 H   0  0  0  0  0  0  0  0  0  0  0  0
    9.4835   -0.6909   21.8378 H   0  0  0  0  0  0  0  0  0  0  0  0
   10.4915   -3.4898   22.9170 H   0  0  0  0  0  0  0  0  0  0  0  0
    9.8927   -3.0352   24.5484 H   0  0  0  0  0  0  0  0  0  0  0  0
   10.3752   -0.9646   22.8894 H   0  0  0  0  0  0  0  0  0  0  0  0
   12.8075   -2.1568   22.7700 H   0  0  0  0  0  0  0  0  0  0  0  0
   11.7533   -1.1884   21.6849 H   0  0  0  0  0  0  0  0  0  0  0  0
   13.7825   -0.4084   23.5176 H   0  0  0  0  0  0  0  0  0  0  0  0
   12.9578    0.4992   22.2051 H   0  0  0  0  0  0  0  0  0  0  0  0
   12.8351    0.9297   24.7960 H   0  0  0  0  0  0  0  0  0  0  0  0
   11.6825    1.4713   23.5292 H   0  0  0  0  0  0  0  0  0  0  0  0
    7.7643   -4.0072   23.7095 H   0  0  0  0  0  0  0  0  0  0  0  0
    8.5359   -4.2339   22.1034 H   0  0  0  0  0  0  0  0  0  0  0  0
    8.2656   -1.7140   23.5712 H   0  0  0  0  0  0  0  0  0  0  0  0
  1  4  1  0  0  0  0
  1  5  1  0  0  0  0
  1  6  1  0  0  0  0
  2  4  1  0  0  0  0
  3  4  2  0  0  0  0
  5 13  1  0  0  0  0
  6  7  1  0  0  0  0
  7 14  1  0  0  0  0
  8  9  1  0  0  0  0
  8 14  1  0  0  0  0
  9 10  1  0  0  0  0
  9 15  1  0  0  0  0
 10 11  1  0  0  0  0
 11 12  1  0  0  0  0
 12 15  1  0  0  0  0
 13 14  1  0  0  0  0
  2 17  1  0  0  0  0
  2 18  1  0  0  0  0
  5 19  1  0  0  0  0
  5 20  1  0  0  0  0
  6 21  1  0  0  0  0
  6 22  1  0  0  0  0
  7 23  1  0  0  0  0
  7 24  1  0  0  0  0
  8 25  1  0  0  0  0
  8 26  1  0  0  0  0
  9 27  1  0  0  0  0
 10 28  1  0  0  0  0
 10 29  1  0  0  0  0
 11 30  1  0  0  0  0
 11 31  1  0  0  0  0
 12 32  1  0  0  0  0
 12 33  1  0  0  0  0
 13 34  1  0  0  0  0
 13 35  1  0  0  0  0
 14 36  1  0  0  0  0
  2 16  1  0  0  0  0
M  CHG  1  14   1
M  RGP  1  16   1
M  END
$$$$
