LIG(A-1101)
  -OEChem-03272010503D

 39 40  0     1  0  0  0  0  0999 V2000
    8.7980   -1.9840   23.0490 N   0  3  1  0  0  0  0  0  0  0  0  0
   12.7230   -2.0480   22.1320 C   0  0  0  0  0  0  0  0  0  0  0  0
    5.9400   -4.4160   19.5550 O   0  0  0  0  0  0  0  0  0  0  0  0
   12.1790   -0.9580   23.0200 C   0  0  0  0  0  0  0  0  0  0  0  0
    6.4650   -1.4660   21.2850 C   0  0  0  0  0  0  0  0  0  0  0  0
    7.1870   -3.7400   22.1060 C   0  0  0  0  0  0  0  0  0  0  0  0
    7.7650   -3.0040   23.3130 C   0  0  0  0  0  0  0  0  0  0  0  0
    6.5660   -3.3810   19.7670 C   0  0  0  0  0  0  0  0  0  0  0  0
    7.2560   -2.7040   18.5920 C   0  0  0  0  0  0  0  0  0  0  0  0
   12.9100    0.2110   23.1590 C   0  0  0  0  0  0  0  0  0  0  0  0
   12.4700    1.2440   23.9620 C   0  0  0  0  0  0  0  0  0  0  0  0
   11.2820    1.1230   24.6430 C   0  0  0  0  0  0  0  0  0  0  0  0
   10.5400   -0.0350   24.5240 C   0  0  0  0  0  0  0  0  0  0  0  0
   10.9760   -1.0970   23.7340 C   0  0  0  0  0  0  0  0  0  0  0  0
   10.1080   -2.3270   23.6150 C   0  0  0  0  0  0  0  0  0  0  0  0
    8.9100   -1.5010   21.6640 C   0  0  0  0  0  0  0  0  0  0  0  0
    7.7370   -0.6600   21.2420 C   0  0  0  0  0  0  0  0  0  0  0  0
    6.7070   -2.8880   21.0100 N   0  0  0  0  0  0  0  0  0  0  0  0
    8.9210   -3.3850   18.3200 R#  0  0  0  0  0  0  0  0  0  0  0  0
    8.4998   -1.1846   23.5706 H   0  0  0  0  0  0  0  0  0  0  0  0
   13.6825   -1.7260   21.7012 H   0  0  0  0  0  0  0  0  0  0  0  0
   12.8758   -2.9618   22.7250 H   0  0  0  0  0  0  0  0  0  0  0  0
   12.0075   -2.2520   21.3218 H   0  0  0  0  0  0  0  0  0  0  0  0
    6.0162   -1.3687   22.2845 H   0  0  0  0  0  0  0  0  0  0  0  0
    5.7686   -1.0716   20.5304 H   0  0  0  0  0  0  0  0  0  0  0  0
    7.1346   -4.8178   22.0612 H   0  0  0  0  0  0  0  0  0  0  0  0
    7.4318   -3.2209   24.3171 H   0  0  0  0  0  0  0  0  0  0  0  0
    6.6532   -2.8588   17.6850 H   0  0  0  0  0  0  0  0  0  0  0  0
    7.3389   -1.6266   18.7977 H   0  0  0  0  0  0  0  0  0  0  0  0
   13.8443    0.3162   22.6275 H   0  0  0  0  0  0  0  0  0  0  0  0
   13.0578    2.1453   24.0550 H   0  0  0  0  0  0  0  0  0  0  0  0
   10.9307    1.9304   25.2684 H   0  0  0  0  0  0  0  0  0  0  0  0
    9.6027   -0.1196   25.0538 H   0  0  0  0  0  0  0  0  0  0  0  0
    9.9662   -2.7670   24.6132 H   0  0  0  0  0  0  0  0  0  0  0  0
   10.6046   -3.0575   22.9595 H   0  0  0  0  0  0  0  0  0  0  0  0
    9.8251   -0.8970   21.5756 H   0  0  0  0  0  0  0  0  0  0  0  0
    8.9783   -2.3703   20.9934 H   0  0  0  0  0  0  0  0  0  0  0  0
    7.9016   -0.2985   20.2162 H   0  0  0  0  0  0  0  0  0  0  0  0
    7.6441    0.1989   21.9230 H   0  0  0  0  0  0  0  0  0  0  0  0
  1  7  1  0  0  0  0
  1 15  1  0  0  0  0
  1 16  1  0  0  0  0
  2  4  1  0  0  0  0
  3  8  2  0  0  0  0
  4 10  1  0  0  0  0
  4 14  2  0  0  0  0
  5 17  1  0  0  0  0
  5 18  1  0  0  0  0
  6  7  2  0  0  0  0
  6 18  1  0  0  0  0
  8  9  1  0  0  0  0
  8 18  1  0  0  0  0
 10 11  2  0  0  0  0
 11 12  1  0  0  0  0
 12 13  2  0  0  0  0
 13 14  1  0  0  0  0
 14 15  1  0  0  0  0
 16 17  1  0  0  0  0
  1 20  1  0  0  0  0
  2 21  1  0  0  0  0
  2 22  1  0  0  0  0
  2 23  1  0  0  0  0
  5 24  1  0  0  0  0
  5 25  1  0  0  0  0
  6 26  1  0  0  0  0
  7 27  1  0  0  0  0
  9 28  1  0  0  0  0
  9 29  1  0  0  0  0
 10 30  1  0  0  0  0
 11 31  1  0  0  0  0
 12 32  1  0  0  0  0
 13 33  1  0  0  0  0
 15 34  1  0  0  0  0
 15 35  1  0  0  0  0
 16 36  1  0  0  0  0
 16 37  1  0  0  0  0
 17 38  1  0  0  0  0
 17 39  1  0  0  0  0
  9 19  1  0  0  0  0
M  CHG  1   1   1
M  RGP  1  19   1
M  END
$$$$
