LIG(A-1101)
  -OEChem-03272010423D

 24 25  0     0  0  0  0  0  0999 V2000
   14.4580  -25.9440    4.4010 N   0  0  0  0  0  0  0  0  0  0  0  0
   15.8790  -25.6050    7.1280 C   0  0  0  0  0  0  0  0  0  0  0  0
   15.0810  -27.8840    7.9180 O   0  0  0  0  0  0  0  0  0  0  0  0
   16.0250  -27.5890    5.5390 C   0  0  0  0  0  0  0  0  0  0  0  0
   14.7510  -27.1990    4.8460 C   0  0  0  0  0  0  0  0  0  0  0  0
   13.1670  -26.0460    3.8460 C   0  0  0  0  0  0  0  0  0  0  0  0
   12.3370  -25.0430    3.2970 C   0  0  0  0  0  0  0  0  0  0  0  0
   11.0730  -25.4160    2.8940 C   0  0  0  0  0  0  0  0  0  0  0  0
   10.6180  -26.7550    3.0070 C   0  0  0  0  0  0  0  0  0  0  0  0
   11.4100  -27.7490    3.5310 C   0  0  0  0  0  0  0  0  0  0  0  0
   12.6970  -27.3830    3.9570 C   0  0  0  0  0  0  0  0  0  0  0  0
   13.7130  -28.1160    4.5880 N   0  0  0  0  0  0  0  0  0  0  0  0
   17.4790  -27.4670    7.6170 O   0  0  0  0  0  0  0  0  0  0  0  0
   16.1300  -27.2420    7.2220 S   0  0  0  0  0  0  0  0  0  0  0  0
   15.0341  -25.1285    4.4565 H   0  0  0  0  0  0  0  0  0  0  0  0
   14.8402  -25.4097    6.8235 H   0  0  0  0  0  0  0  0  0  0  0  0
   16.0647  -25.1486    8.1115 H   0  0  0  0  0  0  0  0  0  0  0  0
   16.5660  -25.1708    6.3867 H   0  0  0  0  0  0  0  0  0  0  0  0
   16.1530  -28.6744    5.4143 H   0  0  0  0  0  0  0  0  0  0  0  0
   16.8509  -27.0625    5.0384 H   0  0  0  0  0  0  0  0  0  0  0  0
   12.6798  -24.0237    3.1971 H   0  0  0  0  0  0  0  0  0  0  0  0
   10.4112  -24.6691    2.4811 H   0  0  0  0  0  0  0  0  0  0  0  0
    9.6211  -27.0004    2.6718 H   0  0  0  0  0  0  0  0  0  0  0  0
   11.0578  -28.7668    3.6115 H   0  0  0  0  0  0  0  0  0  0  0  0
  1  5  1  0  0  0  0
  1  6  1  0  0  0  0
  2 14  1  0  0  0  0
  3 14  2  0  0  0  0
  4  5  1  0  0  0  0
  4 14  1  0  0  0  0
  5 12  2  0  0  0  0
  6  7  2  0  0  0  0
  6 11  1  0  0  0  0
  7  8  1  0  0  0  0
  8  9  2  0  0  0  0
  9 10  1  0  0  0  0
 10 11  2  0  0  0  0
 11 12  1  0  0  0  0
 13 14  2  0  0  0  0
  1 15  1  0  0  0  0
  2 16  1  0  0  0  0
  2 17  1  0  0  0  0
  2 18  1  0  0  0  0
  4 19  1  0  0  0  0
  4 20  1  0  0  0  0
  7 21  1  0  0  0  0
  8 22  1  0  0  0  0
  9 23  1  0  0  0  0
 10 24  1  0  0  0  0
M  END
$$$$
