LIG(A-1101)
  -OEChem-03272012243D

 30 31  0     0  0  0  0  0  0999 V2000
    7.0950   -4.4970   20.7570 N   0  0  0  0  0  0  0  0  0  0  0  0
    7.7210   -2.7500   19.1690 C   0  0  0  0  0  0  0  0  0  0  0  0
    5.6950   -3.9990   19.0720 O   0  0  0  0  0  0  0  0  0  0  0  0
    6.7440   -3.7890   19.6720 C   0  0  0  0  0  0  0  0  0  0  0  0
   10.7950   -0.5580   23.5030 C   0  0  0  0  0  0  0  0  0  0  0  0
    7.8150   -2.8060   22.2890 C   0  0  0  0  0  0  0  0  0  0  0  0
    9.0560   -2.0700   22.5990 C   0  0  0  0  0  0  0  0  0  0  0  0
   10.2110   -1.9820   21.7680 C   0  0  0  0  0  0  0  0  0  0  0  0
   11.2100   -1.1770   22.3640 C   0  0  0  0  0  0  0  0  0  0  0  0
   12.6020   -0.9820   21.8630 C   0  0  0  0  0  0  0  0  0  0  0  0
   13.4670   -0.2860   22.8990 C   0  0  0  0  0  0  0  0  0  0  0  0
   12.7830    0.9050   23.4700 C   0  0  0  0  0  0  0  0  0  0  0  0
   11.5340    0.5250   24.2360 C   0  0  0  0  0  0  0  0  0  0  0  0
    7.9720   -4.0080   21.7080 N   0  0  0  0  0  0  0  0  0  0  0  0
    6.7060   -2.3180   22.5140 O   0  0  0  0  0  0  0  0  0  0  0  0
    9.2820   -1.1620   24.0760 S   0  0  0  0  0  0  0  0  0  0  0  0
    9.0690   -3.4690   18.1820 R#  0  0  0  0  0  0  0  0  0  0  0  0
    6.7085   -5.4108   20.8822 H   0  0  0  0  0  0  0  0  0  0  0  0
    7.1751   -2.0275   18.5446 H   0  0  0  0  0  0  0  0  0  0  0  0
    8.1578   -2.2303   20.0345 H   0  0  0  0  0  0  0  0  0  0  0  0
   10.3104   -2.4669   20.8081 H   0  0  0  0  0  0  0  0  0  0  0  0
   13.0404   -1.9638   21.6308 H   0  0  0  0  0  0  0  0  0  0  0  0
   12.5721   -0.3687   20.9503 H   0  0  0  0  0  0  0  0  0  0  0  0
   13.6905   -0.9933   23.7113 H   0  0  0  0  0  0  0  0  0  0  0  0
   14.4056    0.0348   22.4235 H   0  0  0  0  0  0  0  0  0  0  0  0
   13.4756    1.4200   24.1520 H   0  0  0  0  0  0  0  0  0  0  0  0
   12.5046    1.5827   22.6495 H   0  0  0  0  0  0  0  0  0  0  0  0
   11.8153    0.1624   25.2357 H   0  0  0  0  0  0  0  0  0  0  0  0
   10.8844    1.4071   24.3353 H   0  0  0  0  0  0  0  0  0  0  0  0
    8.7543   -4.5712   21.9741 H   0  0  0  0  0  0  0  0  0  0  0  0
  1  4  1  0  0  0  0
  1 14  1  0  0  0  0
  2  4  1  0  0  0  0
  3  4  2  0  0  0  0
  5  9  2  0  0  0  0
  5 13  1  0  0  0  0
  5 16  1  0  0  0  0
  6  7  1  0  0  0  0
  6 14  1  0  0  0  0
  6 15  2  0  0  0  0
  7  8  2  0  0  0  0
  7 16  1  0  0  0  0
  8  9  1  0  0  0  0
  9 10  1  0  0  0  0
 10 11  1  0  0  0  0
 11 12  1  0  0  0  0
 12 13  1  0  0  0  0
  1 18  1  0  0  0  0
  2 19  1  0  0  0  0
  2 20  1  0  0  0  0
  8 21  1  0  0  0  0
 10 22  1  0  0  0  0
 10 23  1  0  0  0  0
 11 24  1  0  0  0  0
 11 25  1  0  0  0  0
 12 26  1  0  0  0  0
 12 27  1  0  0  0  0
 13 28  1  0  0  0  0
 13 29  1  0  0  0  0
 14 30  1  0  0  0  0
  2 17  1  0  0  0  0
M  RGP  1  17   1
M  END
$$$$
