LIG(A-1101)
  -OEChem-03292022423D

 30 31  0     0  0  0  0  0  0999 V2000
   23.7210   -8.0730    3.6400 N   0  0  0  0  0  0  0  0  0  0  0  0
   25.1090   -7.1380    5.4480 C   0  0  0  0  0  0  0  0  0  0  0  0
   23.6760   -7.2330    4.8710 C   0  0  0  0  0  0  0  0  0  0  0  0
   22.6500   -7.7310    5.9090 C   0  0  0  0  0  0  0  0  0  0  0  0
   24.2170   -9.4690    3.8150 C   0  0  0  0  0  0  0  0  0  0  0  0
   23.9470   -7.4030    2.3980 C   0  0  0  0  0  0  0  0  0  0  0  0
   24.0170   -5.3660    1.1710 C   0  0  0  0  0  0  0  0  0  0  0  0
   24.4810   -7.2740    0.0140 C   0  0  0  0  0  0  0  0  0  0  0  0
   25.1220   -7.7910   -2.4170 C   0  0  0  0  0  0  0  0  0  0  0  0
   24.5180   -9.4410    0.7170 C   0  0  0  0  0  0  0  0  0  0  0  0
   24.2920   -8.0960    1.1860 C   0  0  0  0  0  0  0  0  0  0  0  0
   23.8110   -6.0130    2.3700 N   0  0  0  0  0  0  0  0  0  0  0  0
   24.3510   -5.8880   -0.0350 N   0  0  0  0  0  0  0  0  0  0  0  0
   24.8010   -8.1480   -1.0240 N   0  0  0  0  0  0  0  0  0  0  0  0
   24.8140   -9.4470   -0.5930 N   0  0  0  0  0  0  0  0  0  0  0  0
   25.0980   -6.5211    6.3587 H   0  0  0  0  0  0  0  0  0  0  0  0
   25.4731   -8.1467    5.6929 H   0  0  0  0  0  0  0  0  0  0  0  0
   25.7747   -6.6789    4.7023 H   0  0  0  0  0  0  0  0  0  0  0  0
   23.3756   -6.2167    4.5760 H   0  0  0  0  0  0  0  0  0  0  0  0
   22.6673   -7.0705    6.7885 H   0  0  0  0  0  0  0  0  0  0  0  0
   21.6442   -7.7221    5.4637 H   0  0  0  0  0  0  0  0  0  0  0  0
   22.9064   -8.7559    6.2152 H   0  0  0  0  0  0  0  0  0  0  0  0
   24.2048   -9.9873    2.8448 H   0  0  0  0  0  0  0  0  0  0  0  0
   25.2450   -9.4465    4.2057 H   0  0  0  0  0  0  0  0  0  0  0  0
   23.5670  -10.0028    4.5239 H   0  0  0  0  0  0  0  0  0  0  0  0
   23.8954   -4.2931    1.1952 H   0  0  0  0  0  0  0  0  0  0  0  0
   26.0075   -7.1387   -2.4341 H   0  0  0  0  0  0  0  0  0  0  0  0
   25.3295   -8.7059   -2.9913 H   0  0  0  0  0  0  0  0  0  0  0  0
   24.2683   -7.2620   -2.8658 H   0  0  0  0  0  0  0  0  0  0  0  0
   24.4574  -10.3241    1.3357 H   0  0  0  0  0  0  0  0  0  0  0  0
  1  3  1  0  0  0  0
  1  5  1  0  0  0  0
  1  6  1  0  0  0  0
  2  3  1  0  0  0  0
  3  4  1  0  0  0  0
  6 11  1  0  0  0  0
  6 12  2  0  0  0  0
  7 12  1  0  0  0  0
  7 13  2  0  0  0  0
  8 11  2  0  0  0  0
  8 13  1  0  0  0  0
  8 14  1  0  0  0  0
  9 14  1  0  0  0  0
 10 11  1  0  0  0  0
 10 15  2  0  0  0  0
 14 15  1  0  0  0  0
  2 16  1  0  0  0  0
  2 17  1  0  0  0  0
  2 18  1  0  0  0  0
  3 19  1  0  0  0  0
  4 20  1  0  0  0  0
  4 21  1  0  0  0  0
  4 22  1  0  0  0  0
  5 23  1  0  0  0  0
  5 24  1  0  0  0  0
  5 25  1  0  0  0  0
  7 26  1  0  0  0  0
  9 27  1  0  0  0  0
  9 28  1  0  0  0  0
  9 29  1  0  0  0  0
 10 30  1  0  0  0  0
M  END
$$$$
